19
Iteration:  3495
 C         4.583067        -0.336017         1.709890
 C         3.281645        -0.264637         0.950201
 C         2.188273        -1.269590         0.795558
 C         1.403019        -0.086710         0.104232
 C        -0.035615        -0.078676        -0.160465
 O         2.139913         0.108733        -1.250304
 C         3.186541         0.680956        -0.485486
 C         2.440653         0.961608         0.818284
 O         2.398035         2.083222         1.546959
 H         5.329764        -0.976120         1.290928
 H         5.132248         0.645232         1.653754
 H         4.370748        -0.794005         2.723085
 H         2.233489        -2.115577         0.053255
 H         1.813438        -1.638231         1.797754
 H        -0.619714        -0.233118         0.706918
 H        -0.321172         0.888994        -0.510770
 H        -0.388068        -0.773632        -0.875855
 H         4.085592         1.139624        -0.974297
 H         2.046239         2.763333         1.096264
