19
Iteration:  2328charge 0 multiplicity 1
 C         4.635424        -0.378594         1.547849
 C         3.265479        -0.246734         0.970237
 C         2.129087        -1.250794         0.814926
 C         1.438787        -0.068167         0.071273
 C        -0.067300         0.031167        -0.146223
 O         2.227883         0.101267        -1.212206
 C         3.265146         0.560775        -0.360654
 C         2.405537         0.985447         0.801204
 O         2.262029         2.055061         1.561893
 H         5.300566        -0.883443         0.808782
 H         5.093545         0.712997         1.648451
 H         4.828273        -0.888640         2.446059
 H         2.442092        -2.159490         0.212236
 H         1.803749        -1.621700         1.813655
 H        -0.627402         0.325105         0.766862
 H        -0.342213         0.785856        -0.922476
 H        -0.527590        -0.838916        -0.624032
 H         4.226889         0.953460        -0.738820
 H         1.954280         2.774988         1.108935
