19
Iteration:  3288charge 0 multiplicity 1
 C         4.549352        -0.401118         1.759925
 C         3.351402        -0.179186         0.837385
 C         2.176379        -1.139455         0.752384
 C         1.403724        -0.053044         0.029341
 C        -0.045755        -0.103852        -0.024336
 O         2.149255         0.117013        -1.227240
 C         3.266911         0.600637        -0.453767
 C         2.408268         0.946044         0.752127
 O         2.333186         2.022600         1.527211
 H         5.259561        -1.109663         1.458859
 H         5.035629         0.510953         2.001930
 H         4.101091        -0.896175         2.662072
 H         2.241985        -1.984278         0.157545
 H         1.949946        -1.268063         1.794210
 H        -0.451370        -0.510715         0.917707
 H        -0.500939         0.904257        -0.203123
 H        -0.137748        -0.757362        -0.945630
 H         3.938360         1.185274        -0.988075
 H         2.380030         2.911299         0.996128
