19
Iteration:    34charge 0 multiplicity 1
 C         4.482854        -0.431165         1.910001
 C         3.355338        -0.256331         0.906522
 C         2.282822        -1.200095         0.706292
 C         1.417997        -0.039548        -0.015353
 C        -0.087391        -0.064444         0.043367
 O         2.077523         0.064381        -1.262309
 C         3.228420         0.576825        -0.608136
 C         2.530121         1.004880         0.717648
 O         2.303581         2.190698         1.468860
 H         5.329500        -1.043016         1.581966
 H         4.855854         0.573482         2.047223
 H         4.144311        -0.771011         2.892935
 H         2.430031        -2.025227         0.111822
 H         1.799694        -1.545425         1.606418
 H        -0.410642        -0.369846         1.033055
 H        -0.575687         0.896679        -0.200670
 H        -0.473679        -0.778217        -0.695392
 H         4.046083         0.884584        -1.231511
 H         3.089467         2.282836         2.101896
