19
Iteration:  4796
 C         4.673637        -0.509331         1.685292
 C         3.408284        -0.161613         0.933658
 C         2.200631        -1.188617         0.717797
 C         1.430956        -0.028195         0.091017
 C        -0.015076        -0.098001        -0.031884
 O         2.091563         0.162304        -1.215149
 C         3.245887         0.728580        -0.440266
 C         2.410321         0.948282         0.754556
 O         2.204901         2.007103         1.502740
 H         5.144556        -1.396899         1.222620
 H         5.353229         0.318071         2.021651
 H         4.265820        -0.764913         2.692038
 H         2.494917        -2.041456         0.030263
 H         1.790399        -1.550401         1.608642
 H        -0.423517         0.275499         0.873244
 H        -0.354560         0.614398        -0.769400
 H        -0.304396        -1.077024        -0.380761
 H         4.231242         1.184572        -0.802408
 H         1.659124         2.699587         0.871712
