19
Iteration:   805charge 0 multiplicity 1
 C         4.761987        -0.396740         1.644764
 C         3.313980        -0.276244         0.919423
 C         2.190499        -1.224022         0.869794
 C         1.426256        -0.031269         0.041720
 C        -0.118535         0.098633        -0.249277
 O         2.182723         0.088527        -1.223735
 C         3.188603         0.646998        -0.463377
 C         2.448725         0.948577         0.737004
 O         2.198875         1.929481         1.673380
 H         5.459623        -1.105072         1.275783
 H         5.301189         0.552539         1.501576
 H         4.716935        -0.514170         2.704526
 H         2.052418        -2.273169         0.584473
 H         1.634131        -1.031971         1.875614
 H        -0.818325        -0.032734         0.656308
 H        -0.369891         1.022430        -0.773301
 H        -0.417120        -0.707547        -0.963343
 H         4.007253         1.087405        -0.997292
 H         2.644709         2.775273         1.434697
