19
Iteration:   911
 C         4.502894        -0.520250         1.800179
 C         3.376271        -0.229103         0.835769
 C         2.267540        -1.179651         0.614786
 C         1.450159        -0.034747         0.044333
 C        -0.058257        -0.018599         0.061270
 O         2.177924         0.138028        -1.235446
 C         3.334276         0.627542        -0.547920
 C         2.363202         0.967660         0.839467
 O         2.205616         2.087998         1.568470
 H         5.189244        -1.254003         1.194744
 H         5.044651         0.363799         2.085927
 H         4.121868        -1.080617         2.742993
 H         2.443816        -2.027887        -0.051734
 H         1.899587        -1.450475         1.543642
 H        -0.514321        -0.099930         1.054626
 H        -0.361860         0.943708        -0.353218
 H        -0.437223        -0.786079        -0.577727
 H         4.237579         0.790504        -1.096619
 H         2.264004         2.896147         0.845989
