19
Iteration:  1933
 C         4.589835        -0.479779         1.688002
 C         3.302721        -0.269895         0.957526
 C         2.210310        -1.226968         0.653029
 C         1.418849        -0.043635        -0.020890
 C        -0.052047        -0.019891         0.088071
 O         2.254794         0.099636        -1.296974
 C         3.256973         0.636864        -0.422995
 C         2.425497         0.959617         0.815155
 O         2.203789         2.178519         1.533501
 H         5.310179        -1.095311         1.123337
 H         5.158388         0.509207         1.872513
 H         4.431591        -0.935922         2.605913
 H         2.394516        -2.107957         0.007816
 H         1.690116        -1.623507         1.594221
 H        -0.334561        -0.066173         1.142777
 H        -0.559833         0.720361        -0.505833
 H        -0.541474        -0.891328        -0.420597
 H         4.210304         0.769293        -0.863171
 H         1.937269         2.862787         1.052451
