19
Iteration:  2623charge 0 multiplicity 1
 C         4.557401        -0.255587         1.756660
 C         3.340094        -0.279652         0.870925
 C         2.119390        -1.197042         0.742403
 C         1.371143        -0.068889        -0.011274
 C        -0.034826        -0.081550        -0.062011
 O         2.142031         0.136425        -1.284593
 C         3.233348         0.555161        -0.454260
 C         2.460369         0.901592         0.761272
 O         2.348370         2.038739         1.615182
 H         4.971388        -1.242816         1.823929
 H         5.499588         0.482995         1.448301
 H         4.180574         0.061145         2.711659
 H         2.298202        -2.045405         0.090836
 H         1.759749        -1.332380         1.753035
 H        -0.499080        -0.374403         0.901306
 H        -0.246080         0.969206        -0.268504
 H        -0.393850        -0.813978        -0.859335
 H         4.111578         1.055654        -0.905655
 H         2.763138         2.805083         1.258025
