19
Iteration:   159
 C         4.698579        -0.488797         1.563182
 C         3.362854        -0.252151         0.966597
 C         2.167493        -1.192782         0.923430
 C         1.452299        -0.056912         0.033963
 C        -0.025503         0.078517        -0.179881
 O         2.141434         0.043155        -1.282750
 C         3.283026         0.538875        -0.404262
 C         2.471293         1.024586         0.773950
 O         2.141108         2.186212         1.573694
 H         5.182134        -1.371267         1.040705
 H         5.462583         0.331547         1.479218
 H         4.562514        -0.847939         2.613796
 H         2.414444        -2.065038         0.401852
 H         1.665434        -1.213034         1.891464
 H        -0.579598         0.122418         0.793534
 H        -0.266079         0.981226        -0.728293
 H        -0.398884        -0.841237        -0.657185
 H         4.277578         0.763512        -0.797669
 H         1.097525         1.923348         1.672453
