19
Iteration:  4901
 C         4.547314        -0.256192         1.618530
 C         3.351349        -0.201955         0.881057
 C         2.258701        -1.232597         0.777646
 C         1.433563        -0.033233         0.001915
 C        -0.058201         0.036319        -0.122397
 O         2.118845        -0.052390        -1.216114
 C         3.216706         0.636636        -0.407878
 C         2.478529         0.944830         0.770434
 O         2.312694         1.990408         1.688166
 H         5.306278        -1.037428         1.144490
 H         5.123430         0.645919         1.463527
 H         4.393201        -0.448123         2.748826
 H         2.370015        -2.102305         0.098713
 H         1.769747        -1.445795         1.811235
 H        -0.718141        -0.462239         0.569608
 H        -0.378079         1.095820        -0.478337
 H        -0.330137        -0.692025        -0.956748
 H         3.896419         1.290053        -1.029371
 H         1.789516         2.675067         1.341971
