19
Iteration:  1279
 C         4.623149        -0.423511         1.777063
 C         3.361787        -0.302046         0.872682
 C         2.231785        -1.258027         0.718929
 C         1.408608        -0.035938         0.071681
 C        -0.129804         0.029594        -0.168456
 O         2.132652         0.193476        -1.226593
 C         3.257032         0.648860        -0.512655
 C         2.481572         0.978528         0.755256
 O         2.285925         1.983040         1.650063
 H         4.983604        -1.434774         1.661933
 H         5.583549         0.198324         1.474086
 H         4.225690        -0.195843         2.770000
 H         2.369874        -2.033157        -0.001847
 H         1.814629        -1.689921         1.639412
 H        -0.396685        -0.156124         0.861973
 H        -0.466748         0.953308        -0.588247
 H        -0.512294        -0.803856        -0.732958
 H         4.097404         1.209800        -0.861823
 H         1.655480         2.740052         1.319831
