19
Iteration:  2226charge 0 multiplicity 1
 C         4.550029        -0.318164         1.747186
 C         3.358459        -0.344642         0.937015
 C         2.184300        -1.221766         0.719934
 C         1.408743        -0.019259         0.042186
 C        -0.117356        -0.009769        -0.085771
 O         2.166628         0.157532        -1.192917
 C         3.248619         0.649177        -0.501206
 C         2.472815         0.879564         0.746569
 O         2.348784         2.024206         1.540640
 H         5.225154        -1.241414         1.651842
 H         5.372061         0.390378         1.474519
 H         4.350037        -0.082679         2.835205
 H         2.025377        -2.151265         0.002849
 H         1.798600        -1.554986         1.776967
 H        -0.550739        -0.391253         0.826688
 H        -0.649696         0.893049        -0.327538
 H        -0.393242        -0.783012        -0.832662
 H         4.241318         1.096464        -0.787858
 H         1.929983         2.795594         1.035430
