19
Iteration:  1590
 C         4.546713        -0.485265         1.764655
 C         3.341502        -0.202090         0.845226
 C         2.333973        -1.250556         0.662672
 C         1.371545        -0.048040         0.087269
 C        -0.096383        -0.035837        -0.117917
 O         2.182377         0.149062        -1.229365
 C         3.143422         0.646619        -0.344699
 C         2.335946         0.948553         0.811144
 O         2.393029         2.115962         1.525370
 H         5.255461        -1.151717         1.186041
 H         5.086207         0.345102         2.130125
 H         4.378893        -1.221314         2.607152
 H         2.675954        -2.026523        -0.119991
 H         2.066710        -1.811503         1.521925
 H        -0.492610        -0.066905         0.889291
 H        -0.534164         0.909955        -0.452607
 H        -0.561802        -0.880925        -0.594716
 H         3.898688         1.310758        -0.829277
 H         2.159103         2.739528         0.917777
