19
Iteration:  4342
 C         4.616050        -0.264565         1.708438
 C         3.318772        -0.237591         0.887826
 C         2.185468        -1.226266         0.698332
 C         1.431846        -0.093742        -0.018188
 C        -0.070426        -0.029054        -0.071856
 O         2.152406         0.081363        -1.233097
 C         3.247524         0.570589        -0.445736
 C         2.407280         0.960457         0.787622
 O         2.334248         2.027975         1.621983
 H         5.405987        -1.074415         1.451062
 H         5.103870         0.616014         1.528252
 H         4.373361        -0.367977         2.811650
 H         2.246049        -2.171557         0.128689
 H         1.539453        -1.468697         1.553090
 H        -0.366940         0.093881         0.933339
 H        -0.283344         0.902231        -0.544508
 H        -0.651911        -0.817122        -0.526522
 H         4.162481         0.947900        -0.821931
 H         1.908052         2.689033         1.197636
