19
Iteration:  4936charge 0 multiplicity 1
 C         4.602840        -0.298425         1.689033
 C         3.409229        -0.264539         0.822978
 C         2.152059        -1.166761         0.774234
 C         1.447266        -0.058082        -0.021168
 C        -0.105356        -0.071231         0.002897
 O         2.161952         0.128575        -1.295740
 C         3.316618         0.583202        -0.475760
 C         2.475575         0.984178         0.754200
 O         2.195338         1.952466         1.665902
 H         5.318706        -1.128338         1.305362
 H         5.088617         0.688948         1.621397
 H         4.365252        -0.434256         2.770519
 H         2.239513        -2.262958         0.469027
 H         1.638801        -1.177811         1.722834
 H        -0.428713         0.162215         1.015938
 H        -0.531254         0.770089        -0.634546
 H        -0.483644        -0.987953        -0.556841
 H         4.107563         1.077188        -0.991803
 H         2.248636         2.751563         1.286357
