19
Iteration:  2946
 C         4.645238        -0.534919         1.753606
 C         3.387966        -0.193773         0.866469
 C         2.135342        -1.147393         0.709943
 C         1.542107        -0.031744        -0.006392
 C         0.019968        -0.036654         0.064332
 O         2.162171         0.066919        -1.255677
 C         3.278585         0.618703        -0.514830
 C         2.404332         1.021440         0.715252
 O         2.082773         2.068603         1.544809
 H         5.342622        -1.193602         1.255694
 H         5.031830         0.433339         2.255989
 H         4.094846        -1.089034         2.629023
 H         2.300843        -2.174420         0.410840
 H         1.690290        -1.203856         1.682916
 H        -0.164071         0.168327         1.126970
 H        -0.524011         0.760130        -0.490659
 H        -0.365787        -1.069468        -0.176439
 H         4.221935         1.132238        -0.941078
 H         2.344264         2.981365         1.041145
