19
Iteration:  3419
 C         4.570114        -0.470089         1.717143
 C         3.396290        -0.213999         0.782574
 C         2.265204        -1.165822         0.814569
 C         1.456078        -0.104273         0.038586
 C        -0.013655         0.044565        -0.062884
 O         2.183691         0.025324        -1.225721
 C         3.232273         0.610789        -0.525687
 C         2.425445         1.021284         0.747023
 O         2.140439         2.079967         1.634280
 H         5.008951        -1.399573         1.313952
 H         5.435835         0.276770         1.676614
 H         4.210809        -0.674035         2.804102
 H         2.409064        -2.128954         0.335424
 H         1.716342        -1.327033         1.750078
 H        -0.397367        -0.226060         0.885027
 H        -0.327961         0.993046        -0.459806
 H        -0.432705        -0.719816        -0.676344
 H         4.141604         1.101876        -1.041270
 H         1.925858         3.009371         1.229124
