19
Iteration:  1731
 C         4.607595        -0.407800         1.646890
 C         3.330411        -0.276767         0.910626
 C         2.180134        -1.234040         0.634925
 C         1.401213        -0.070217        -0.010687
 C        -0.010741         0.029916         0.046208
 O         2.225668         0.171750        -1.227244
 C         3.302254         0.617130        -0.362664
 C         2.424471         0.888748         0.800755
 O         2.154010         2.055172         1.525282
 H         5.381049        -1.044716         1.250290
 H         4.932036         0.605578         1.808085
 H         4.440321        -0.783450         2.732725
 H         2.414898        -2.162069        -0.033445
 H         1.623310        -1.552795         1.494711
 H        -0.289091         0.008468         1.149102
 H        -0.414827         1.064305        -0.270608
 H        -0.518674        -0.872719        -0.407601
 H         4.133515         1.095958        -0.902767
 H         2.255015         2.707419         0.906975
