19
Iteration:  2475
 C         4.699647        -0.394092         1.695558
 C         3.431675        -0.291377         0.807057
 C         2.156133        -1.188635         0.828921
 C         1.391601        -0.023497         0.075010
 C        -0.087153         0.012724        -0.162930
 O         2.148172         0.106608        -1.164012
 C         3.230381         0.594943        -0.423424
 C         2.474841         0.945498         0.760657
 O         2.170538         2.032789         1.510636
 H         5.362194        -1.277358         1.392329
 H         5.158732         0.553985         1.734609
 H         4.509453        -0.500143         2.871025
 H         2.158323        -2.173017         0.374697
 H         1.874525        -1.332965         1.863455
 H        -0.694087        -0.201647         0.810839
 H        -0.385491         1.041239        -0.561664
 H        -0.401380        -0.915006        -0.868721
 H         3.882305         1.286521        -0.941287
 H         2.724478         2.679671         1.296263
