19
Iteration:  2061
 C         4.583629        -0.319577         1.735654
 C         3.337134        -0.265595         0.902203
 C         2.147670        -1.243608         0.747984
 C         1.431823         0.031352         0.058590
 C        -0.084953         0.016063        -0.042210
 O         2.159911         0.159513        -1.277392
 C         3.288586         0.553226        -0.487375
 C         2.454021         0.917080         0.747065
 O         2.274785         1.952428         1.552293
 H         5.136392        -1.341064         1.645447
 H         5.176215         0.525957         1.366999
 H         4.421137        -0.043596         2.815021
 H         2.386356        -2.216292         0.199998
 H         1.891612        -1.487734         1.792197
 H        -0.585502        -0.345936         0.960489
 H        -0.513690         0.995764        -0.237543
 H        -0.411415        -0.847381        -0.723083
 H         4.150688         1.073017        -0.735296
 H         2.355083         2.886641         1.059858
