19
Iteration:  1469charge 0 multiplicity 1
 C         4.649977        -0.310931         1.662811
 C         3.358818        -0.338080         0.923629
 C         2.154611        -1.250194         0.672281
 C         1.397025         0.020040         0.057672
 C        -0.097238         0.053973        -0.211101
 O         2.126212         0.126798        -1.199960
 C         3.231222         0.630467        -0.390893
 C         2.492887         0.913771         0.807313
 O         2.291247         1.960803         1.664675
 H         5.250214        -1.302084         1.762273
 H         5.370151         0.301155         1.108107
 H         4.558057         0.033034         2.766986
 H         2.304987        -2.236516         0.147655
 H         1.695345        -1.511650         1.584292
 H        -0.759982        -0.048466         0.607475
 H        -0.383302         0.879845        -0.867269
 H        -0.284745        -0.819426        -0.810984
 H         4.077007         1.118282        -0.811107
 H         2.102515         2.812849         1.314292
