19
Iteration:  2769charge 0 multiplicity 1
 C         4.630898        -0.403974         1.671699
 C         3.279912        -0.244451         0.953197
 C         2.239811        -1.350970         0.657746
 C         1.396634        -0.118426         0.000837
 C        -0.082841         0.027709        -0.044249
 O         2.173835         0.090741        -1.190042
 C         3.267855         0.633648        -0.326602
 C         2.348519         0.929590         0.783900
 O         2.244297         2.169313         1.484681
 H         5.456859        -1.080856         1.359940
 H         5.245161         0.590671         1.730848
 H         4.365461        -0.814986         2.662127
 H         2.710180        -1.933365        -0.175583
 H         1.960138        -1.651795         1.693905
 H        -0.315267         0.218476         1.011435
 H        -0.351503         0.936181        -0.631054
 H        -0.744778        -0.727021        -0.399014
 H         4.058092         1.092872        -0.768670
 H         2.804462         2.789843         0.934332
