19
Iteration:  2737
 C         4.674769        -0.524450         1.639014
 C         3.349505        -0.297727         0.926464
 C         2.103874        -1.182346         0.771871
 C         1.486368         0.010542         0.061159
 C        -0.027274        -0.017570        -0.003310
 O         2.209393         0.094913        -1.263034
 C         3.297139         0.653659        -0.469288
 C         2.471705         0.974527         0.776020
 O         2.056257         2.102488         1.501564
 H         5.596665        -0.954412         1.093672
 H         4.971802         0.388706         2.261343
 H         4.525236        -1.070235         2.622069
 H         2.280082        -2.249508         0.312466
 H         1.768506        -1.403243         1.866823
 H        -0.476546         0.167125         0.957346
 H        -0.413962         0.806465        -0.617302
 H        -0.392966        -0.970769        -0.272835
 H         4.147320         1.069708        -0.880722
 H         2.322567         2.920616         0.901681
