19
Iteration:  1905
 C         4.534646        -0.452821         1.743376
 C         3.408526        -0.195867         0.870689
 C         2.302309        -1.246284         0.695371
 C         1.444650        -0.087684         0.053040
 C        -0.031944         0.057882        -0.003418
 O         2.136336         0.091421        -1.201649
 C         3.236168         0.670213        -0.482619
 C         2.410788         0.931084         0.752171
 O         2.236802         2.036853         1.523821
 H         5.048516        -1.350390         1.415364
 H         5.319871         0.260683         1.871426
 H         4.080772        -0.670276         2.822480
 H         2.496566        -2.161583         0.093112
 H         2.026849        -1.463056         1.712670
 H        -0.512052         0.026130         0.975409
 H        -0.404065         0.935108        -0.576002
 H        -0.536538        -0.618564        -0.679118
 H         3.897142         1.333323        -1.081424
 H         1.812489         2.796725         1.236645
