19
Iteration:  2253charge 0 multiplicity 1
 C         4.526842        -0.402943         1.723968
 C         3.307618        -0.215286         0.944574
 C         2.198861        -1.144544         0.700695
 C         1.444144        -0.115453        -0.082017
 C        -0.047578        -0.082656         0.039586
 O         2.184955         0.093535        -1.306737
 C         3.317446         0.555214        -0.491700
 C         2.397208         1.020812         0.700709
 O         2.285269         2.071763         1.659259
 H         5.007632        -1.327321         1.607362
 H         5.347428         0.297772         1.582007
 H         4.222629        -0.287131         2.740699
 H         2.265566        -2.004161         0.137636
 H         1.651062        -1.394582         1.543485
 H        -0.363319        -0.333978         1.092078
 H        -0.394627         0.992919        -0.073846
 H        -0.665455        -0.650432        -0.683856
 H         4.285597         0.907476        -0.759709
 H         2.245714         3.031233         1.228676
