19
Iteration:  3026charge 0 multiplicity 1
 C         4.645141        -0.180220         1.606943
 C         3.268870        -0.249212         0.927238
 C         2.188558        -1.330140         0.809364
 C         1.376324        -0.112710         0.057412
 C        -0.153341         0.032872        -0.262992
 O         2.158354         0.074858        -1.120925
 C         3.257647         0.584748        -0.381912
 C         2.426386         0.923172         0.791309
 O         2.390258         2.028505         1.618312
 H         5.087288        -1.230178         1.217977
 H         5.206960         0.515667         1.044420
 H         4.765380        -0.074038         2.773388
 H         2.536913        -2.115837         0.116682
 H         1.710541        -1.589412         1.803381
 H        -0.906014        -0.118832         0.489998
 H        -0.318664         1.008274        -0.644707
 H        -0.378673        -0.613018        -1.065563
 H         4.189440         0.824110        -0.904721
 H         2.072905         2.972263         1.146598
