19
Iteration:  2078
 C         4.562540        -0.359182         1.730166
 C         3.360718        -0.280022         0.873153
 C         2.230598        -1.253430         0.680451
 C         1.420417        -0.154774        -0.002901
 C        -0.053805         0.044003        -0.002246
 O         2.161469         0.068369        -1.205119
 C         3.238930         0.644277        -0.412037
 C         2.409634         0.976170         0.723663
 O         2.280838         2.093253         1.598743
 H         4.981620        -1.322256         1.622334
 H         5.362010         0.412847         1.620001
 H         4.286972        -0.359287         2.805556
 H         2.387854        -2.049212        -0.074389
 H         1.707141        -1.614248         1.569191
 H        -0.530505        -0.094239         0.943953
 H        -0.262659         1.063379        -0.386701
 H        -0.562660        -0.645901        -0.658194
 H         4.023691         1.031422        -1.147352
 H         2.360043         2.845027         0.819085
