19
Iteration:  2562charge 0 multiplicity 1
 C         4.644444        -0.467980         1.733262
 C         3.351277        -0.295420         0.906917
 C         2.186302        -1.266105         0.786939
 C         1.477718        -0.037057         0.026234
 C        -0.023868         0.002861        -0.040764
 O         2.098858         0.134334        -1.242982
 C         3.260457         0.620032        -0.463009
 C         2.470732         1.001596         0.763953
 O         2.218096         2.137590         1.517876
 H         5.412107        -1.282203         1.479690
 H         5.175628         0.437873         1.643020
 H         4.498701        -0.875905         2.842221
 H         2.301610        -2.289430         0.291332
 H         1.817744        -1.412928         1.839518
 H        -0.496197         0.137660         0.962073
 H        -0.353623         0.769233        -0.794025
 H        -0.431211        -0.803305        -0.702230
 H         4.162849         1.058676        -1.020890
 H         1.295947         2.481416         0.988368
