19
Iteration:   624charge 0 multiplicity 1
 C         4.668721        -0.370891         1.649310
 C         3.343205        -0.268787         0.894499
 C         2.180591        -1.170122         0.811411
 C         1.407730        -0.044896         0.040781
 C        -0.175275         0.038061        -0.223252
 O         2.112972         0.075999        -1.181965
 C         3.345215         0.579545        -0.428052
 C         2.457882         0.975540         0.744317
 O         2.315231         2.012390         1.664746
 H         5.397000        -1.049635         1.289737
 H         5.079812         0.580898         1.584425
 H         4.439866        -0.608032         2.680753
 H         2.264890        -2.213296         0.343973
 H         1.721403        -1.220772         1.818379
 H        -0.879049        -0.179092         0.599889
 H        -0.323613         0.936729        -0.803444
 H        -0.428790        -0.715123        -0.988160
 H         4.278601         0.910257        -0.876036
 H         1.723788         2.541347         1.255076
