19
Iteration:   460charge 0 multiplicity 1
 C         4.632111        -0.307622         1.623540
 C         3.363166        -0.244583         0.812979
 C         2.077431        -1.214220         0.902197
 C         1.332023        -0.021267         0.084322
 C        -0.108813        -0.024465        -0.319860
 O         2.193697         0.126779        -1.205439
 C         3.268899         0.500971        -0.494482
 C         2.468261         0.974717         0.806764
 O         2.399561         2.026654         1.720573
 H         5.452382        -1.094606         1.396820
 H         5.186156         0.634965         1.493285
 H         4.403536        -0.399614         2.746144
 H         2.042014        -2.247319         0.519616
 H         1.649312        -1.228347         1.892562
 H        -0.707858        -0.200695         0.616417
 H        -0.476912         0.831944        -0.880039
 H        -0.265842        -0.913591        -0.970880
 H         4.136696         0.959043        -0.991639
 H         1.557980         2.501764         1.445215
