19
Iteration:  4506charge 0 multiplicity 1
 C         4.589041        -0.281846         1.708870
 C         3.351662        -0.261363         0.837795
 C         2.199398        -1.211076         0.741130
 C         1.413001        -0.122432        -0.016165
 C        -0.076167        -0.015211        -0.079657
 O         2.185950         0.046637        -1.214896
 C         3.200113         0.665791        -0.484574
 C         2.418368         0.961418         0.721413
 O         2.304353         2.029395         1.688348
 H         5.213982        -1.190900         1.456480
 H         5.262967         0.502889         1.525101
 H         4.276585        -0.419137         2.776060
 H         2.335162        -2.199696         0.333095
 H         1.829940        -1.434033         1.771891
 H        -0.530539        -0.337517         0.864973
 H        -0.421727         0.950929        -0.413363
 H        -0.454994        -0.758175        -0.805573
 H         4.041670         1.202801        -1.060089
 H         2.315839         2.900015         1.321464
