19
Iteration:   971
 C         4.715428        -0.336995         1.586520
 C         3.329847        -0.299114         0.899796
 C         2.141834        -1.296969         0.792444
 C         1.446206         0.008283         0.004431
 C        -0.084810         0.114200        -0.181468
 O         2.146574         0.092831        -1.166955
 C         3.293324         0.560406        -0.336352
 C         2.408342         0.866601         0.807781
 O         2.248895         2.051762         1.620207
 H         5.367886        -0.906906         1.017794
 H         5.281236         0.644758         1.663117
 H         4.723687        -0.807824         2.511689
 H         2.247535        -2.199470         0.154886
 H         1.445708        -1.565058         1.711329
 H        -0.759043         0.265385         0.659503
 H        -0.203273         0.992732        -0.879213
 H        -0.501039        -0.685485        -0.870611
 H         4.143931         1.122387        -0.738132
 H         1.783532         2.684817         1.140364
