19
Iteration:   804
 C         4.761063        -0.389744         1.643057
 C         3.320017        -0.274487         0.914741
 C         2.188976        -1.223809         0.865561
 C         1.421608        -0.042097         0.032430
 C        -0.119030         0.102039        -0.246145
 O         2.177510         0.091882        -1.218819
 C         3.190539         0.645233        -0.460456
 C         2.452880         0.942876         0.743602
 O         2.194719         1.929181         1.667676
 H         5.463233        -1.125285         1.262976
 H         5.279113         0.517943         1.549317
 H         4.718210        -0.519076         2.714964
 H         2.087672        -2.312152         0.591125
 H         1.629982        -1.017734         1.844377
 H        -0.809708        -0.009515         0.648356
 H        -0.386711         1.046408        -0.740719
 H        -0.392321        -0.715401        -0.933762
 H         4.050892         1.070452        -0.956483
 H         2.665229         2.859413         1.417926
