19
Iteration:   878charge 0 multiplicity 1
 C         4.589769        -0.465608         1.782278
 C         3.334626        -0.322733         0.931090
 C         2.192362        -1.222884         0.658813
 C         1.415753        -0.021224        -0.000090
 C        -0.065892        -0.041697        -0.076586
 O         2.156319         0.200438        -1.196885
 C         3.245027         0.725581        -0.428160
 C         2.388821         0.829453         0.804730
 O         2.356975         2.099428         1.518112
 H         5.292601        -1.331518         1.447294
 H         5.224030         0.366005         1.528141
 H         4.536594        -0.465612         2.926737
 H         2.374785        -2.132150         0.057383
 H         1.724309        -1.445222         1.558728
 H        -0.449588        -0.131710         0.931235
 H        -0.400674         0.899418        -0.526107
 H        -0.472391        -0.820537        -0.681490
 H         3.990339         1.108639        -1.101625
 H         1.623753         2.648241         1.147323
