19
Iteration:  3996charge 0 multiplicity 1
 C         4.591144        -0.492030         1.736031
 C         3.393070        -0.236276         0.881587
 C         2.242838        -1.244783         0.824754
 C         1.421695        -0.071301         0.045475
 C        -0.102700        -0.007583         0.050415
 O         2.189726         0.083805        -1.255045
 C         3.286273         0.707260        -0.501819
 C         2.422090         1.022967         0.646377
 O         2.164603         2.041960         1.524115
 H         5.282907        -1.155960         1.414089
 H         5.070906         0.571708         1.876801
 H         4.244923        -0.642461         2.678449
 H         2.566083        -2.276825         0.356889
 H         1.828084        -1.638430         1.747211
 H        -0.596264         0.251021         0.977233
 H        -0.289903         0.849206        -0.633612
 H        -0.478205        -0.842353        -0.642019
 H         4.078140         1.120733        -1.082483
 H         2.425997         2.870675         1.294921
