19
Iteration:   915
 C         4.513947        -0.565870         1.807016
 C         3.380401        -0.195681         0.830635
 C         2.265667        -1.144984         0.617529
 C         1.449939        -0.043323         0.010706
 C        -0.056838         0.012590         0.041045
 O         2.185693         0.116513        -1.209634
 C         3.307178         0.615112        -0.555194
 C         2.374207         0.975503         0.824943
 O         2.194045         2.073100         1.568101
 H         5.228692        -1.134134         1.289909
 H         4.955999         0.436169         2.000074
 H         4.256806        -1.062522         2.701076
 H         2.423683        -2.020552        -0.036324
 H         1.868094        -1.551726         1.659299
 H        -0.429119        -0.105283         1.104573
 H        -0.522677         0.953698        -0.264039
 H        -0.433970        -0.869902        -0.536755
 H         4.291905         0.920404        -1.027668
 H         2.327166         2.824444         0.943108
