19
Iteration:  1038charge 0 multiplicity 1
 C         4.599164        -0.457746         1.732503
 C         3.376021        -0.278141         0.824570
 C         2.133899        -1.136840         0.826704
 C         1.439178        -0.018296         0.008390
 C        -0.140284        -0.062494        -0.092533
 O         2.138058         0.148752        -1.283190
 C         3.312031         0.707356        -0.462737
 C         2.515846         0.967920         0.721260
 O         2.298145         1.966503         1.674009
 H         4.993558        -1.405403         1.777403
 H         5.308808         0.360464         1.399846
 H         4.234522        -0.205177         2.680746
 H         2.311089        -2.086862         0.253097
 H         1.477866        -1.515200         1.710482
 H        -0.616710        -0.404493         0.816298
 H        -0.595180         0.914503        -0.533500
 H        -0.288327        -0.904679        -0.834861
 H         4.089613         1.213823        -0.977916
 H         2.138891         2.788745         1.248807
