19
Iteration:  2330charge 0 multiplicity 1
 C         4.652062        -0.370874         1.541523
 C         3.265696        -0.230276         0.965001
 C         2.122525        -1.232568         0.799168
 C         1.436011        -0.071773         0.068720
 C        -0.056897         0.025954        -0.146468
 O         2.241815         0.088839        -1.198856
 C         3.260249         0.552390        -0.373624
 C         2.386311         0.962951         0.804725
 O         2.262492         2.059002         1.569970
 H         5.228984        -0.911965         0.837478
 H         4.998878         0.683830         1.644437
 H         4.813102        -0.918421         2.430981
 H         2.363769        -2.099048         0.237053
 H         1.786354        -1.551865         1.738743
 H        -0.597152         0.320617         0.838585
 H        -0.334282         0.790455        -0.921239
 H        -0.533427        -0.845682        -0.602779
 H         4.276054         0.964843        -0.697145
 H         1.995344         2.829991         1.144888
