19
Iteration:  4308
 C         4.541988        -0.371720         1.772361
 C         3.390156        -0.228758         0.857556
 C         2.237476        -1.170841         0.696148
 C         1.412166        -0.028289         0.099307
 C        -0.045354        -0.102241        -0.037320
 O         2.131513         0.056175        -1.277384
 C         3.211681         0.661068        -0.483809
 C         2.433584         0.973656         0.690648
 O         2.316869         2.019107         1.606924
 H         5.085562        -1.386676         1.740886
 H         5.189866         0.454124         1.854920
 H         4.075647        -0.296659         2.823147
 H         2.366200        -2.059939         0.088154
 H         1.668489        -1.252148         1.658859
 H        -0.471039        -0.322030         0.888500
 H        -0.416626         0.898525        -0.237387
 H        -0.456155        -0.769744        -0.772750
 H         4.095357         1.099487        -1.021306
 H         2.368878         2.892804         1.052376
