19
Iteration:  2969charge 0 multiplicity 1
 C         4.571632        -0.466362         1.709618
 C         3.394290        -0.233147         0.845863
 C         2.188809        -1.134319         0.878945
 C         1.476530        -0.029715         0.102971
 C        -0.116989        -0.022606        -0.017173
 O         2.211583         0.136496        -1.278056
 C         3.294215         0.621229        -0.531416
 C         2.491688         0.995987         0.702204
 O         2.128775         1.974090         1.535748
 H         5.251789        -1.162074         1.153594
 H         5.073275         0.484348         1.898369
 H         4.295166        -0.938224         2.778331
 H         2.499912        -2.047607         0.386121
 H         1.831749        -1.422856         1.858010
 H        -0.515439         0.183457         0.951263
 H        -0.420326         0.771077        -0.641474
 H        -0.520643        -0.989600        -0.387972
 H         4.202437         1.022958        -0.963621
 H         2.111166         2.817423         1.037853
