19
Iteration:  4965charge 0 multiplicity 1
 C         4.590691        -0.339077         1.717960
 C         3.355403        -0.216379         0.875243
 C         2.210175        -1.270651         0.667276
 C         1.467724        -0.138336         0.079797
 C        -0.063740        -0.032980        -0.007606
 O         2.152704         0.144298        -1.234966
 C         3.242441         0.681982        -0.411657
 C         2.414323         0.919500         0.773078
 O         2.257771         2.052637         1.539936
 H         5.141333        -1.235799         1.342718
 H         5.119403         0.568150         1.513051
 H         4.572715        -0.712582         2.752967
 H         2.356189        -2.161520         0.067630
 H         1.744699        -1.608459         1.692781
 H        -0.533366         0.429273         0.852451
 H        -0.157070         0.682932        -0.861531
 H        -0.530933        -1.004180        -0.200182
 H         4.104913         1.153300        -0.944957
 H         1.869116         2.750587         1.068389
