19
Iteration:    38charge 0 multiplicity 1
 C         4.452990        -0.407708         1.895630
 C         3.392104        -0.274823         0.868314
 C         2.272459        -1.224156         0.733339
 C         1.431400        -0.063395        -0.031014
 C        -0.089225        -0.074397         0.037676
 O         2.086643         0.086557        -1.269010
 C         3.204537         0.588176        -0.572976
 C         2.527642         0.996631         0.720234
 O         2.311235         2.197882         1.467124
 H         5.341827        -1.069809         1.581911
 H         4.891850         0.578788         2.130226
 H         4.013441        -0.792069         2.861787
 H         2.427333        -2.216192         0.023872
 H         1.725478        -1.350151         1.718704
 H        -0.349035        -0.340701         1.070051
 H        -0.492154         0.947713        -0.096884
 H        -0.561012        -0.802601        -0.640563
 H         4.074192         0.948882        -1.147714
 H         3.114272         2.328294         1.989167
