19
Iteration:  2215charge 0 multiplicity 1
 C         4.588064        -0.336493         1.714385
 C         3.359792        -0.295392         0.846931
 C         2.171376        -1.253793         0.736203
 C         1.439633        -0.092514         0.134704
 C        -0.139557        -0.015832        -0.161178
 O         2.108853         0.153579        -1.168029
 C         3.249915         0.665751        -0.414994
 C         2.512197         0.914346         0.793016
 O         2.370896         2.027298         1.539879
 H         5.157045        -1.323009         1.784700
 H         5.044320         0.623232         1.404681
 H         4.223671        -0.153720         2.754224
 H         2.439385        -2.163941         0.034007
 H         1.647101        -1.457659         1.758489
 H        -0.756511        -0.163018         0.716958
 H        -0.258944         0.981935        -0.541108
 H        -0.439454        -0.725593        -0.959830
 H         4.127324         1.035062        -1.034219
 H         1.827634         2.677654         0.840347
