19
Iteration:   395
 C         4.586566        -0.465761         1.831676
 C         3.443038        -0.291113         0.845177
 C         2.145915        -1.202656         0.662715
 C         1.443969        -0.070084         0.035097
 C        -0.044575         0.037018         0.049208
 O         2.161513         0.139918        -1.241507
 C         3.290942         0.585997        -0.457563
 C         2.456541         0.912911         0.723975
 O         2.137660         2.132439         1.469683
 H         5.385768        -1.271881         1.663774
 H         5.087074         0.466395         2.057079
 H         3.962347        -0.870918         2.683356
 H         2.272490        -1.974688        -0.082461
 H         1.832721        -1.508857         1.602280
 H        -0.210186        -0.113463         1.131543
 H        -0.451337         0.975661        -0.280371
 H        -0.579377        -0.710369        -0.537964
 H         4.130551         1.108345        -0.888682
 H         2.767995         2.729034         1.199112
