19
Iteration:  1749
 C         4.566571        -0.458153         1.696546
 C         3.255092        -0.224297         0.950883
 C         2.195930        -1.271567         0.642275
 C         1.494591        -0.038610        -0.003134
 C        -0.115685        -0.045232         0.126607
 O         2.280733         0.162981        -1.290574
 C         3.285335         0.663514        -0.349106
 C         2.409122         0.986412         0.707349
 O         2.212814         2.083014         1.513341
 H         5.209684        -0.941248         0.959238
 H         5.162575         0.482066         2.019972
 H         4.415993        -1.228575         2.439730
 H         2.240145        -2.072014        -0.052963
 H         1.769497        -1.727097         1.542107
 H        -0.299207        -0.243228         1.146397
 H        -0.501169         0.856886        -0.308676
 H        -0.566046        -0.913090        -0.339248
 H         4.302035         0.981011        -0.761827
 H         2.137013         2.792831         1.021965
