19
Iteration:  2205charge 0 multiplicity 1
 C         4.587655        -0.313037         1.721789
 C         3.396004        -0.272210         0.831944
 C         2.203970        -1.286068         0.745576
 C         1.329778        -0.119222         0.080881
 C        -0.045374         0.014010        -0.182060
 O         2.082547         0.139442        -1.180145
 C         3.215817         0.564368        -0.426542
 C         2.453656         0.950812         0.830346
 O         2.374215         2.081980         1.590194
 H         5.246521        -1.193527         1.448679
 H         5.431644         0.445879         1.572225
 H         4.295219        -0.303377         2.746974
 H         2.350569        -2.322458         0.242764
 H         1.825987        -1.637416         1.783987
 H        -0.753037         0.027853         0.625863
 H        -0.157089         0.987615        -0.684856
 H        -0.275265        -0.727203        -1.010277
 H         4.017193         1.122482        -1.005229
 H         1.870347         2.852570         0.993381
