19
Iteration:  2715
 C         4.649048        -0.518627         1.631853
 C         3.399405        -0.237552         0.864398
 C         2.178698        -1.093401         0.833340
 C         1.472221        -0.020064         0.059769
 C        -0.049552         0.005811        -0.071469
 O         2.199412         0.097759        -1.192048
 C         3.319591         0.547586        -0.444159
 C         2.401308         1.009421         0.712020
 O         2.104998         2.053757         1.554883
 H         5.464164        -0.988232         0.961822
 H         5.275087         0.216246         2.264759
 H         4.495028        -1.187195         2.548133
 H         2.312769        -2.195512         0.375878
 H         1.766701        -1.054262         1.932076
 H        -0.663726         0.072399         0.811012
 H        -0.336371         0.869686        -0.698465
 H        -0.414781        -0.886431        -0.499329
 H         4.064342         0.942724        -1.037636
 H         1.575902         2.731317         0.997551
