19
Iteration:  1423charge 0 multiplicity 1
 C         4.446651        -0.515467         1.698391
 C         3.333452        -0.166017         0.861215
 C         2.174067        -1.175539         0.697568
 C         1.440315        -0.045965         0.047127
 C        -0.075925        -0.119906        -0.036242
 O         2.221100         0.148158        -1.256686
 C         3.281276         0.700570        -0.485874
 C         2.436587         0.966577         0.756576
 O         2.352628         2.067939         1.660941
 H         4.824973        -1.531048         1.555188
 H         5.314312         0.263245         1.619028
 H         3.996904        -0.557876         2.756384
 H         2.440316        -1.985139        -0.039409
 H         1.767376        -1.697548         1.563894
 H        -0.412664        -0.392648         0.973066
 H        -0.474084         0.818469        -0.359867
 H        -0.359167        -0.878192        -0.756793
 H         4.137617         1.301119        -0.913673
 H         2.012030         2.738185         1.160442
