19
Iteration:  1102charge 0 multiplicity 1
 C         4.612469        -0.425497         1.742443
 C         3.409414        -0.278006         0.881731
 C         2.197093        -1.235493         0.663035
 C         1.399490        -0.104715         0.065604
 C        -0.090441         0.055572        -0.076936
 O         2.188193         0.145269        -1.211683
 C         3.184037         0.688855        -0.418859
 C         2.381427         0.904706         0.815241
 O         2.296751         2.036152         1.541029
 H         5.336040        -1.194566         1.279861
 H         5.122166         0.666872         1.965240
 H         4.407052        -0.931876         2.719461
 H         2.398990        -1.952959        -0.109889
 H         1.694778        -1.792420         1.523139
 H        -0.511518         0.090173         0.892637
 H        -0.302045         1.039025        -0.546833
 H        -0.564394        -0.751421        -0.657574
 H         3.996597         1.193645        -0.906766
 H         2.399244         2.725265         0.997288
