19
Iteration:  4540charge 0 multiplicity 1
 C         4.650127        -0.247729         1.643096
 C         3.381018        -0.316422         0.895472
 C         2.188397        -1.204756         0.766387
 C         1.418002        -0.108069         0.024007
 C        -0.091179         0.008795        -0.113411
 O         2.157189         0.127001        -1.205512
 C         3.230325         0.550001        -0.481426
 C         2.453359         0.992254         0.690722
 O         2.280140         1.983338         1.707489
 H         5.275687        -1.110224         1.204998
 H         4.961625         0.756786         1.704494
 H         4.598434        -0.398743         2.791369
 H         2.248773        -2.185413         0.194085
 H         1.763688        -1.095445         1.826362
 H        -0.726004         0.188734         0.799045
 H        -0.296760         0.824268        -0.763447
 H        -0.301590        -0.910171        -0.677319
 H         4.195579         0.749465        -1.055158
 H         1.386038         2.582705         1.340075
