19
Iteration:  1658
 C         4.636693        -0.338360         1.578879
 C         3.314539        -0.201397         0.882680
 C         2.087979        -1.136090         0.785428
 C         1.392618        -0.068700        -0.009587
 C        -0.073542        -0.043995        -0.209256
 O         2.258037         0.082647        -1.227288
 C         3.233529         0.603887        -0.473260
 C         2.445297         0.975131         0.749103
 O         2.311952         1.959413         1.797965
 H         5.153171        -1.386100         1.563000
 H         5.299832         0.406722         1.059714
 H         4.670874        -0.139153         2.637468
 H         2.027879        -2.156556         0.383416
 H         1.718613        -1.269786         1.845647
 H        -0.569637        -0.245142         0.756306
 H        -0.338691         0.937885        -0.513266
 H        -0.553079        -0.769030        -0.833137
 H         4.138895         0.936631        -0.912613
 H         1.750894         2.783266         1.727639
