19
Iteration:  2766charge 0 multiplicity 1
 C         4.626508        -0.418744         1.663442
 C         3.272239        -0.219854         0.953201
 C         2.228616        -1.345885         0.666365
 C         1.413018        -0.116268         0.007803
 C        -0.068079         0.022900        -0.048048
 O         2.179496         0.099436        -1.189303
 C         3.266472         0.621748        -0.319893
 C         2.340464         0.931527         0.769431
 O         2.238156         2.158187         1.468855
 H         5.429406        -0.992539         1.296619
 H         5.295141         0.529776         1.824781
 H         4.386075        -0.832269         2.609526
 H         2.683072        -1.899255        -0.094919
 H         2.008838        -1.660095         1.666731
 H        -0.283208         0.228325         1.072779
 H        -0.389881         0.951903        -0.621906
 H        -0.835324        -0.753906        -0.331616
 H         4.146603         1.125874        -0.738573
 H         2.774145         2.733385         1.024707
