19
Iteration:  1876charge 0 multiplicity 1
 C         4.656339        -0.314023         1.725344
 C         3.411130        -0.298747         0.856865
 C         2.130445        -1.246711         0.763148
 C         1.439536        -0.106528         0.064217
 C        -0.060448         0.022322        -0.147175
 O         2.104084         0.145364        -1.244915
 C         3.253411         0.584309        -0.500625
 C         2.474288         0.978067         0.722828
 O         2.258333         1.971959         1.661304
 H         5.140584        -1.351269         1.783616
 H         5.371759         0.471075         1.520654
 H         4.335719        -0.087064         2.736827
 H         2.241234        -2.154471         0.186149
 H         1.851681        -1.368246         1.818653
 H        -0.699621         0.012798         0.811569
 H        -0.273254         1.079481        -0.343679
 H        -0.503237        -0.722093        -0.887845
 H         4.019048         1.211340        -1.062140
 H         1.921098         2.859526         1.447209
