19
Iteration:   986charge 0 multiplicity 1
 C         4.755643        -0.344721         1.573941
 C         3.331955        -0.260213         0.995541
 C         2.091988        -1.235973         0.701703
 C         1.326811        -0.123661         0.169658
 C        -0.086724         0.143064        -0.278200
 O         2.229013         0.068524        -1.218847
 C         3.217847         0.577209        -0.383142
 C         2.417262         0.960310         0.843130
 O         2.303341         2.014717         1.643072
 H         5.355604        -1.153356         1.055999
 H         5.113681         0.639159         1.432529
 H         4.746948        -0.560402         2.686735
 H         2.190688        -2.163205         0.069471
 H         1.879443        -1.572869         1.693818
 H        -0.701378         0.155296         0.644636
 H        -0.211295         1.084410        -0.861667
 H        -0.369789        -0.789612        -0.783129
 H         4.093011         0.905922        -0.915846
 H         1.588687         2.787007         1.219327
