19
Iteration:  2180
 C         4.645191        -0.406901         1.614720
 C         3.324345        -0.190407         0.952701
 C         2.197368        -1.184216         0.802215
 C         1.347461        -0.098855         0.028411
 C        -0.093530         0.026721        -0.208054
 O         2.168197        -0.045158        -1.227574
 C         3.204922         0.658193        -0.431191
 C         2.417679         1.024471         0.798234
 O         2.342401         2.042591         1.669237
 H         5.384835        -1.053596         1.094824
 H         5.189041         0.505898         1.632547
 H         4.538105        -0.658907         2.757072
 H         2.545608        -2.153774         0.244509
 H         1.648751        -1.566501         1.713766
 H        -0.695324         0.132242         0.714196
 H        -0.231720         0.938952        -0.747357
 H        -0.472130        -0.763659        -0.799762
 H         4.040946         1.046471        -0.992007
 H         2.218031         2.920860         1.128921
