19
Iteration:  4066charge 0 multiplicity 1
 C         4.726409        -0.338169         1.576857
 C         3.333944        -0.230704         0.914631
 C         2.170290        -1.125756         0.832171
 C         1.378372        -0.051726         0.045037
 C        -0.130886        -0.043330        -0.221741
 O         2.181427         0.012517        -1.185136
 C         3.268346         0.588897        -0.382465
 C         2.408108         0.909320         0.817289
 O         2.294482         2.093605         1.628436
 H         5.266331        -1.204791         1.113956
 H         5.367119         0.454786         1.486309
 H         4.608227        -0.519661         2.689805
 H         2.277118        -2.089721         0.342790
 H         1.585449        -1.402888         1.782377
 H        -0.862070        -0.200285         0.607990
 H        -0.518475         0.919690        -0.583078
 H        -0.425057        -0.691606        -1.028917
 H         4.087785         1.087747        -0.875335
 H         2.005890         2.705030         0.890004
