19
Iteration:  3907
 C         4.682087        -0.379178         1.648002
 C         3.342713        -0.248524         0.858558
 C         2.152030        -1.227557         0.773355
 C         1.435899        -0.045271         0.119083
 C        -0.051369        -0.056697        -0.207389
 O         2.157053         0.034428        -1.166767
 C         3.218624         0.567639        -0.460508
 C         2.421933         1.012861         0.794830
 O         2.285125         2.144107         1.644742
 H         5.177200        -1.218386         1.277797
 H         5.367348         0.507689         1.613346
 H         4.504767        -0.532801         2.668596
 H         2.279603        -2.165147         0.105265
 H         1.640000        -1.383277         1.727174
 H        -0.553771        -0.204071         0.755978
 H        -0.327400         0.925448        -0.621643
 H        -0.364257        -0.824936        -0.959643
 H         3.969576         1.037401        -1.128235
 H         1.670651         2.782883         1.102337
