19
Iteration:  1219
 C         4.604660        -0.430397         1.735113
 C         3.392094        -0.302401         0.850017
 C         2.206451        -1.162482         0.660377
 C         1.397488        -0.044282         0.020305
 C        -0.099347        -0.074723        -0.095730
 O         2.111594         0.215061        -1.252440
 C         3.270561         0.669781        -0.341543
 C         2.463674         0.926381         0.776803
 O         2.284832         2.012767         1.602923
 H         4.952744        -1.485744         1.718914
 H         5.394589         0.185295         1.575834
 H         4.326365        -0.345582         2.807384
 H         2.305609        -2.032094        -0.084148
 H         1.697195        -1.479666         1.581318
 H        -0.620738        -0.170374         0.887673
 H        -0.470526         0.922608        -0.436418
 H        -0.502922        -0.879326        -0.764021
 H         4.200130         1.122642        -0.667027
 H         2.406377         2.797896         0.998915
