19
Iteration:  2486charge 0 multiplicity 1
 C         4.672634        -0.391389         1.624824
 C         3.391282        -0.274337         0.899845
 C         2.241842        -1.179418         0.841065
 C         1.432668        -0.062844         0.110987
 C        -0.067029         0.080541        -0.197719
 O         2.123381         0.039743        -1.170996
 C         3.242400         0.586996        -0.421644
 C         2.397623         0.925716         0.768635
 O         2.162207         2.068748         1.543826
 H         5.437578        -1.071416         1.115874
 H         5.184376         0.527309         1.613450
 H         4.321996        -0.805965         2.675105
 H         2.433442        -2.036093         0.204443
 H         1.755051        -1.355593         1.788602
 H        -0.677428         0.017434         0.798878
 H        -0.444104         0.973769        -0.804672
 H        -0.322750        -0.878045        -0.845268
 H         4.011238         1.244053        -0.848863
 H         2.845097         2.682514         1.320079
