19
Iteration:  4341
 C         4.611370        -0.263627         1.702172
 C         3.322787        -0.241154         0.889367
 C         2.184044        -1.225391         0.690599
 C         1.424756        -0.099878        -0.016382
 C        -0.070732        -0.029331        -0.073080
 O         2.159249         0.083429        -1.226151
 C         3.250311         0.569176        -0.444838
 C         2.405092         0.966502         0.782625
 O         2.337118         2.025903         1.625630
 H         5.371650        -1.071237         1.489458
 H         5.115015         0.623473         1.540709
 H         4.347192        -0.382576         2.778803
 H         2.274198        -2.156182         0.132581
 H         1.546384        -1.445293         1.569322
 H        -0.390987         0.057555         0.928818
 H        -0.276961         0.928569        -0.519112
 H        -0.658675        -0.831799        -0.480848
 H         4.171430         0.946609        -0.857976
 H         1.889535         2.722343         1.151200
