19
Iteration:  2221charge 0 multiplicity 1
 C         4.562592        -0.337491         1.719009
 C         3.352878        -0.330101         0.903140
 C         2.182427        -1.236753         0.733424
 C         1.454296        -0.054031         0.097010
 C        -0.142034        -0.014033        -0.132212
 O         2.139813         0.159176        -1.164603
 C         3.251612         0.674149        -0.473270
 C         2.497930         0.864591         0.752898
 O         2.355821         2.031187         1.532403
 H         5.162510        -1.221424         1.764460
 H         5.168089         0.536370         1.453278
 H         4.308261        -0.080140         2.805730
 H         2.160894        -2.014618         0.029623
 H         1.796755        -1.443554         1.673225
 H        -0.704728        -0.359693         0.789442
 H        -0.485646         1.015978        -0.448964
 H        -0.476085        -0.775124        -0.838110
 H         4.177078         1.043349        -0.827245
 H         1.911096         2.714459         1.005768
