19
Iteration:  3527charge 0 multiplicity 1
 C         4.620040        -0.428543         1.635354
 C         3.432687        -0.099476         0.828221
 C         2.182839        -1.067604         0.844540
 C         1.356128        -0.061026         0.005705
 C        -0.051051        -0.073099        -0.158209
 O         2.175592        -0.014810        -1.254875
 C         3.278198         0.534140        -0.472694
 C         2.375273         1.018098         0.747435
 O         2.265691         2.010448         1.728631
 H         5.089244        -1.235454         1.176616
 H         5.329654         0.425417         1.959185
 H         4.424978        -0.700575         2.706269
 H         2.152923        -2.115365         0.315485
 H         1.919970        -1.128275         1.964319
 H        -0.497973         0.109058         0.801396
 H        -0.380343         0.854628        -0.607212
 H        -0.562039        -0.866629        -0.777805
 H         3.986037         1.119422        -1.072306
 H         2.008440         2.991898         1.280934
