19
Iteration:   753
 C         4.601636        -0.457686         1.753179
 C         3.308236        -0.256522         0.952919
 C         2.190298        -1.275614         0.606757
 C         1.453838        -0.064776        -0.026391
 C        -0.097830         0.050165         0.060950
 O         2.201880         0.080833        -1.260461
 C         3.320128         0.674313        -0.381880
 C         2.447922         0.944091         0.819401
 O         2.238695         2.130296         1.461147
 H         5.283501        -1.154265         1.272502
 H         5.214504         0.484825         2.160698
 H         4.358994        -0.940954         2.715834
 H         2.391850        -1.813613        -0.277844
 H         1.780836        -1.912961         1.417693
 H        -0.419407         0.054891         1.140224
 H        -0.451623         1.043019        -0.175569
 H        -0.691178        -0.712917        -0.475552
 H         4.153824         1.064079        -0.934859
 H         1.502003         2.406185         1.013029
