19
Iteration:  4692charge 0 multiplicity 1
 C         4.627244        -0.317283         1.669441
 C         3.402620        -0.237498         0.880416
 C         2.213715        -1.206817         0.818276
 C         1.445718        -0.066663         0.105625
 C        -0.136281         0.002183        -0.158769
 O         2.127057         0.093971        -1.243362
 C         3.213042         0.657707        -0.458161
 C         2.504711         0.889905         0.757168
 O         2.270928         1.992705         1.625738
 H         5.384714        -1.051590         1.293872
 H         5.124279         0.589398         1.451699
 H         4.299826        -0.384400         2.739777
 H         2.233810        -2.012663         0.139012
 H         1.806480        -1.591357         1.801032
 H        -0.742949        -0.487783         0.679147
 H        -0.416317         1.023805        -0.413096
 H        -0.277048        -0.662109        -1.045104
 H         4.077778         1.071440        -0.912412
 H         1.754185         2.717285         1.275117
