19
Iteration:  1460
 C         4.697960        -0.324677         1.695658
 C         3.350252        -0.303963         0.919150
 C         2.114165        -1.211284         0.701456
 C         1.409841        -0.025566         0.035683
 C        -0.093889        -0.012642        -0.170623
 O         2.155196         0.184082        -1.263628
 C         3.250844         0.581879        -0.407838
 C         2.454790         0.933672         0.814802
 O         2.300826         1.960446         1.683888
 H         5.131538        -1.453751         1.713162
 H         5.459392         0.329717         1.317595
 H         4.480177         0.102974         2.724662
 H         2.023899        -1.971188        -0.070034
 H         1.491111        -1.363380         1.561035
 H        -0.679712        -0.137258         0.743528
 H        -0.485316         0.881580        -0.722890
 H        -0.342636        -0.894036        -0.784192
 H         4.040372         1.139540        -0.832485
 H         2.239097         2.661857         1.063669
