19
Iteration:  3169charge 0 multiplicity 1
 C         4.655135        -0.387689         1.612859
 C         3.295239        -0.224100         1.000151
 C         2.111517        -1.204078         0.787669
 C         1.471384        -0.093956         0.007016
 C        -0.024409         0.006879        -0.065479
 O         2.223779        -0.005391        -1.222398
 C         3.208854         0.760206        -0.467423
 C         2.530837         0.983946         0.747733
 O         2.128160         2.010982         1.593922
 H         5.128110        -1.269949         0.993976
 H         5.109850         0.477115         1.412856
 H         4.597514        -0.727264         2.676402
 H         2.122044        -2.069609         0.100015
 H         1.680227        -1.378268         1.799362
 H        -0.458163         0.452236         0.847008
 H        -0.213042         0.797509        -0.845601
 H        -0.452392        -0.939880        -0.430087
 H         4.153878         0.892160        -0.981990
 H         2.572335         2.839031         1.507712
