19
Iteration:   978
 C         4.743546        -0.334484         1.590727
 C         3.362940        -0.256075         0.948705
 C         2.105900        -1.314678         0.742896
 C         1.363151        -0.044177         0.079526
 C        -0.095102         0.141944        -0.210578
 O         2.178559         0.077564        -1.196422
 C         3.283869         0.566036        -0.363716
 C         2.373059         0.896487         0.815762
 O         2.286951         2.044488         1.646063
 H         5.378745        -1.030270         0.873744
 H         5.243835         0.646187         1.564748
 H         4.794821        -0.675676         2.700739
 H         2.216530        -2.148178         0.076032
 H         1.586426        -1.462332         1.668321
 H        -0.859397         0.235435         0.599502
 H        -0.156599         0.965917        -0.880791
 H        -0.299204        -0.726738        -0.816349
 H         4.236199         1.015297        -0.746298
 H         1.621235         2.623053         1.028881
