19
Iteration:  1941
 C         4.650184        -0.433624         1.639804
 C         3.262412        -0.271564         0.991528
 C         2.149205        -1.259700         0.647160
 C         1.402238         0.017616        -0.010836
 C        -0.097617        -0.058066         0.028221
 O         2.245290         0.141554        -1.235135
 C         3.304421         0.565185        -0.393842
 C         2.490141         0.990528         0.774686
 O         2.194178         2.117991         1.514958
 H         5.335842        -1.140656         1.061980
 H         5.031207         0.521427         1.940795
 H         4.428222        -0.988656         2.600820
 H         2.346930        -2.168190         0.147872
 H         1.635706        -1.461104         1.552726
 H        -0.296046        -0.025150         1.168901
 H        -0.515410         0.862406        -0.377211
 H        -0.303056        -1.132034        -0.260912
 H         4.153235         1.217880        -0.751117
 H         2.077859         2.821652         0.805612
