19
Iteration:  2784
 C         4.598637        -0.342812         1.734688
 C         3.374172        -0.315067         0.915012
 C         2.235582        -1.302792         0.638154
 C         1.425376        -0.123655         0.076296
 C        -0.097780         0.048380        -0.075929
 O         2.163851         0.094447        -1.221212
 C         3.164108         0.602569        -0.388948
 C         2.426149         0.916693         0.841977
 O         2.284758         2.168744         1.522212
 H         5.335056        -1.153752         1.299761
 H         5.205097         0.517050         1.581347
 H         4.491696        -0.368916         2.872865
 H         2.395725        -2.166843        -0.108427
 H         1.715098        -1.750199         1.530861
 H        -0.661367         0.049613         0.839046
 H        -0.322887         0.927781        -0.625463
 H        -0.546376        -0.802532        -0.655800
 H         4.089216         1.155703        -0.867731
 H         2.462095         2.840890         0.917931
