19
Iteration:  1755
 C         4.558853        -0.502383         1.691306
 C         3.272951        -0.223103         0.989490
 C         2.239677        -1.266369         0.627708
 C         1.401626        -0.046032        -0.000092
 C        -0.087870        -0.053044         0.102541
 O         2.274288         0.148520        -1.317733
 C         3.315305         0.648449        -0.373979
 C         2.413628         1.015270         0.717652
 O         2.221695         2.108372         1.544247
 H         5.287468        -0.951322         0.950072
 H         4.951421         0.401364         2.091753
 H         4.530779        -1.226927         2.543688
 H         2.268041        -2.167609        -0.070459
 H         1.784709        -1.560343         1.632212
 H        -0.390738        -0.165865         1.205174
 H        -0.604254         0.885288        -0.216479
 H        -0.428784        -0.994991        -0.394733
 H         4.115507         1.133627        -0.856329
 H         2.041092         2.929405         0.922439
