19
Iteration:  4755
 C         4.647360        -0.290135         1.649124
 C         3.332803        -0.201058         0.868218
 C         2.201590        -1.255482         0.709865
 C         1.417168        -0.115834         0.014186
 C        -0.070671        -0.002481        -0.119468
 O         2.158533         0.068688        -1.230177
 C         3.275502         0.650756        -0.372430
 C         2.356325         0.954195         0.798809
 O         2.302347         2.003214         1.639737
 H         5.276566        -1.077540         1.299074
 H         5.176722         0.715210         1.560467
 H         4.590596        -0.640424         2.661636
 H         2.206566        -2.083152        -0.020438
 H         1.717443        -1.488573         1.697014
 H        -0.486957         0.205536         0.913437
 H        -0.406026         0.728888        -0.804635
 H        -0.610215        -0.938548        -0.305093
 H         4.180106         1.082213        -0.869684
 H         1.920610         2.723367         1.228556
