19
Iteration:   566
 C         4.627238        -0.490357         1.800517
 C         3.352975        -0.328165         0.913643
 C         2.255053        -1.304946         0.681269
 C         1.386286        -0.069602        -0.022250
 C        -0.131472         0.030844         0.058429
 O         2.238823         0.234437        -1.189855
 C         3.301477         0.611381        -0.485421
 C         2.433864         0.902893         0.772893
 O         2.165217         2.159886         1.445118
 H         5.302793        -1.201956         1.417842
 H         5.049141         0.520595         2.106363
 H         4.298126        -0.824286         2.764222
 H         2.315657        -2.054508        -0.129506
 H         1.719682        -1.790135         1.608208
 H        -0.400719        -0.022426         1.136010
 H        -0.454275         1.038281        -0.206251
 H        -0.535158        -0.786171        -0.552257
 H         4.133896         1.054080        -1.055352
 H         2.259861         2.798017         0.685314
