19
Iteration:  2065charge 0 multiplicity 1
 C         4.570930        -0.355367         1.758158
 C         3.329647        -0.245153         0.893126
 C         2.191465        -1.272505         0.706493
 C         1.424197        -0.008974         0.072290
 C        -0.084264         0.020761        -0.045683
 O         2.157788         0.133232        -1.244491
 C         3.260867         0.580298        -0.477920
 C         2.446468         0.939274         0.745074
 O         2.282507         1.984530         1.522628
 H         5.167731        -1.282487         1.628541
 H         5.221312         0.538237         1.308374
 H         4.370108        -0.093967         2.772418
 H         2.373075        -2.167972         0.204644
 H         1.829057        -1.506245         1.723363
 H        -0.400136        -0.229527         0.995142
 H        -0.491749         1.056235        -0.242146
 H        -0.489008        -0.810206        -0.763834
 H         4.226883         1.081895        -0.709524
 H         2.332348         2.885736         1.299342
