19
Iteration:  4888
 C         4.644125        -0.260623         1.627986
 C         3.362007        -0.268719         0.852109
 C         2.188516        -1.239737         0.741552
 C         1.399375        -0.158724         0.142825
 C        -0.041741         0.005808        -0.204588
 O         2.142513         0.056353        -1.185097
 C         3.197852         0.657555        -0.466125
 C         2.364969         0.909186         0.827211
 O         2.348614         2.052148         1.628323
 H         5.316897        -1.096556         1.240562
 H         5.116401         0.743144         1.547488
 H         4.492795        -0.387555         2.751862
 H         2.280887        -2.208845         0.265546
 H         1.925391        -1.429923         1.871413
 H        -0.658690        -0.256525         0.662229
 H        -0.253090         1.088264        -0.322527
 H        -0.196934        -0.419202        -1.190523
 H         4.055609         1.216431        -0.896142
 H         1.541944         2.531388         1.221740
