19
Iteration:  2682charge 0 multiplicity 1
 C         4.700388        -0.389672         1.621707
 C         3.284837        -0.218846         0.938825
 C         2.164119        -1.211759         0.782095
 C         1.423741        -0.118661         0.027257
 C        -0.027400         0.036396        -0.186330
 O         2.212621        -0.015377        -1.155520
 C         3.194692         0.639882        -0.458985
 C         2.342523         0.990274         0.770468
 O         2.314525         2.112708         1.626297
 H         5.215981        -1.277571         1.108180
 H         5.194102         0.679259         1.649392
 H         4.485802        -0.896327         2.646516
 H         2.366748        -2.300371         0.392087
 H         1.733884        -1.575266         1.805155
 H        -0.585746         0.060975         0.735103
 H        -0.139088         1.031663        -0.663984
 H        -0.395648        -0.640826        -0.914317
 H         3.968408         1.095542        -1.017674
 H         1.588755         2.793404         1.282904
