19
Iteration:  2427charge 0 multiplicity 1
 C         4.557281        -0.368489         1.734536
 C         3.311530        -0.183991         0.923693
 C         2.234471        -1.212873         0.640538
 C         1.396530        -0.103466         0.004156
 C        -0.119954        -0.006572        -0.009429
 O         2.194920         0.052221        -1.226843
 C         3.304045         0.607212        -0.380266
 C         2.352174         0.966581         0.712348
 O         2.383865         2.092472         1.546545
 H         4.841511        -1.427251         1.677508
 H         5.433623         0.376739         1.493336
 H         4.429722        -0.264497         2.799418
 H         2.431121        -2.097174        -0.090963
 H         1.709889        -1.659966         1.533501
 H        -0.383359        -0.459866         0.972090
 H        -0.579259         0.978661        -0.048632
 H        -0.607541        -0.610180        -0.743164
 H         4.238642         1.093782        -0.795986
 H         1.657092         2.636511         1.068817
