19
Iteration:  3139
 C         4.619154        -0.366266         1.693997
 C         3.411276        -0.282897         0.886405
 C         2.252145        -1.260054         0.742554
 C         1.387382        -0.065877         0.034169
 C        -0.077983         0.038014        -0.022926
 O         2.164342         0.206094        -1.236509
 C         3.291519         0.503728        -0.334833
 C         2.367412         0.906881         0.847822
 O         2.169363         2.080552         1.441170
 H         5.371910        -1.084694         1.101065
 H         5.402335         0.519829         1.678640
 H         4.406504        -0.819908         2.665772
 H         2.158396        -2.151729        -0.003195
 H         1.922297        -1.641015         1.734376
 H        -0.506742         0.296941         0.928576
 H        -0.141311         0.788718        -0.844838
 H        -0.478342        -0.838602        -0.390456
 H         4.026127         1.116575        -0.697023
 H         2.340614         2.806977         0.878329
