19
Iteration:  3290charge 0 multiplicity 1
 C         4.535115        -0.389678         1.755398
 C         3.341926        -0.200818         0.822808
 C         2.190648        -1.134533         0.773835
 C         1.399447        -0.060691         0.023704
 C        -0.035924        -0.102746        -0.031827
 O         2.131553         0.125721        -1.214926
 C         3.281499         0.609976        -0.445995
 C         2.421560         0.947047         0.743853
 O         2.323817         2.013791         1.530189
 H         5.241795        -1.161355         1.353829
 H         4.960823         0.475658         2.063816
 H         4.107942        -0.841678         2.653626
 H         2.265573        -2.026247         0.171619
 H         1.991923        -1.253006         1.836401
 H        -0.458397        -0.517030         0.923956
 H        -0.491796         0.954414        -0.247295
 H        -0.111073        -0.771068        -0.922568
 H         4.005420         1.204042        -1.037964
 H         2.448157         2.940928         0.947908
