19
Iteration:  3609
 C         4.547176        -0.397485         1.654200
 C         3.393257        -0.193961         0.899830
 C         2.279562        -1.250805         0.695575
 C         1.424588        -0.119156         0.128952
 C        -0.061214         0.048293         0.001902
 O         2.155764         0.046370        -1.172913
 C         3.209863         0.644423        -0.413722
 C         2.474748         0.977068         0.744940
 O         2.166942         2.048715         1.476601
 H         5.086687        -1.356350         1.327786
 H         5.245890         0.384559         1.511773
 H         4.157686        -0.563688         2.677557
 H         2.545019        -1.991611        -0.027832
 H         1.713991        -1.715747         1.496068
 H        -0.572682         0.083718         0.984543
 H        -0.065728         0.980703        -0.544327
 H        -0.392155        -0.707144        -0.597922
 H         4.133161         1.136924        -0.899333
 H         2.621053         2.984011         1.165801
