19
Iteration:   848
 C         4.614896        -0.395645         1.619691
 C         3.317424        -0.290682         0.876009
 C         2.164072        -1.217052         0.803914
 C         1.376164        -0.025299         0.025482
 C        -0.081283        -0.020696        -0.241632
 O         2.190618         0.122902        -1.209284
 C         3.303883         0.570604        -0.435560
 C         2.376556         0.983351         0.754034
 O         2.315893         2.057336         1.765846
 H         5.118755        -1.354180         1.441449
 H         5.177018         0.378878         1.182584
 H         4.634533        -0.187114         2.681558
 H         2.372899        -2.144527         0.182002
 H         1.782945        -1.574374         1.822008
 H        -0.608756        -0.071357         0.771346
 H        -0.399012         0.943075        -0.602434
 H        -0.368470        -0.866299        -0.868132
 H         4.086515         0.983091        -1.056052
 H         2.097616         3.013321         1.216717
