19
Iteration:  4925
 C         4.638974        -0.283071         1.717069
 C         3.353885        -0.185547         0.848904
 C         2.175942        -1.147951         0.745265
 C         1.377843        -0.126630         0.026432
 C        -0.086427        -0.053151        -0.034795
 O         2.193849         0.113188        -1.275183
 C         3.310989         0.553555        -0.510745
 C         2.412659         0.980019         0.656644
 O         2.223830         1.957765         1.737291
 H         5.365352        -1.076064         1.253157
 H         5.274846         0.612143         1.616084
 H         4.482148        -0.495124         2.807397
 H         1.991747        -2.118448         0.165178
 H         1.928420        -1.158935         1.783956
 H        -0.623312        -0.179661         0.907154
 H        -0.215816         0.977735        -0.525434
 H        -0.669871        -0.911358        -0.538558
 H         4.196213         0.742354        -1.081972
 H         2.237984         2.882007         1.325275
