19
Iteration:  4631
 C         4.636009        -0.488445         1.657791
 C         3.395049        -0.244277         0.920903
 C         2.201437        -1.218254         0.753038
 C         1.429663        -0.077766         0.026299
 C        -0.066486        -0.103472         0.002708
 O         2.194326         0.192756        -1.152098
 C         3.275385         0.686712        -0.434143
 C         2.443299         1.015249         0.749383
 O         2.140469         2.057997         1.494144
 H         5.184125        -1.305944         1.095946
 H         5.367073         0.363472         1.776016
 H         4.468687        -0.588991         2.756309
 H         2.120680        -2.140743         0.001115
 H         1.636480        -1.611217         1.619228
 H        -0.525597        -0.307229         0.932422
 H        -0.649508         0.764995        -0.399076
 H        -0.310914        -0.857306        -0.727200
 H         4.032917         1.213821        -0.947509
 H         2.404450         2.885427         0.803396
