19
Iteration:  3436charge 0 multiplicity 1
 C         4.612974        -0.433080         1.707692
 C         3.299737        -0.193547         0.918420
 C         2.198249        -1.215721         0.727837
 C         1.475917        -0.079906         0.001111
 C        -0.020899        -0.025459        -0.034220
 O         2.154405         0.049720        -1.277410
 C         3.252081         0.654356        -0.386790
 C         2.356915         0.970296         0.726933
 O         2.249101         2.068948         1.573095
 H         5.107286        -1.368093         1.401964
 H         5.186268         0.498365         1.786812
 H         4.334040        -0.417028         2.718120
 H         2.382612        -2.161890         0.121769
 H         1.896162        -1.407002         1.774142
 H        -0.338808        -0.314569         1.031296
 H        -0.287220         1.060866        -0.220937
 H        -0.445843        -0.738290        -0.830175
 H         3.988667         1.143993        -0.918703
 H         2.475447         2.939287         0.960929
