19
Iteration:  4910
 C         4.628782        -0.269094         1.647532
 C         3.343855        -0.176126         0.865159
 C         2.211918        -1.224108         0.779748
 C         1.417952        -0.041441         0.043699
 C        -0.086801         0.011525        -0.120917
 O         2.169416        -0.012256        -1.234928
 C         3.236763         0.582398        -0.503771
 C         2.390886         1.037442         0.727980
 O         2.288280         1.944165         1.716568
 H         5.272417        -1.103765         1.211390
 H         5.227060         0.654081         1.702816
 H         4.316508        -0.409198         2.721239
 H         2.552088        -2.077449         0.210695
 H         1.673043        -1.616616         1.746491
 H        -0.481817        -0.224669         0.878342
 H        -0.550843         0.978341        -0.390549
 H        -0.350918        -0.665825        -0.921431
 H         4.140811         1.012210        -1.026115
 H         2.016861         2.749572         1.380670
