19
Iteration:   138
 C         4.777613        -0.469802         1.525713
 C         3.373574        -0.239828         0.948877
 C         2.094347        -1.132597         0.987501
 C         1.405136        -0.121588         0.053249
 C        -0.030969         0.138877        -0.225717
 O         2.273545         0.033373        -1.155941
 C         3.217061         0.715215        -0.434250
 C         2.344604         0.883622         0.746217
 O         2.157883         1.990119         1.537888
 H         5.206036        -1.393862         1.023228
 H         5.530154         0.308055         1.129340
 H         4.937929        -0.665055         2.620375
 H         2.098617        -2.295150         0.727076
 H         1.573426        -0.803397         1.943247
 H        -0.528889         0.341441         0.763357
 H        -0.024958         1.036026        -0.836312
 H        -0.552979        -0.713072        -0.689377
 H         4.062528         1.277313        -0.790477
 H         1.477370         2.498702         1.273232
