19
Iteration:  3770charge 0 multiplicity 1
 C         4.544356        -0.410548         1.712673
 C         3.415455        -0.136722         0.883720
 C         2.242308        -1.067897         0.706589
 C         1.401662        -0.032309         0.013614
 C        -0.028417        -0.007730         0.046661
 O         2.177178         0.047992        -1.261817
 C         3.267282         0.522263        -0.470360
 C         2.408322         0.971675         0.672394
 O         2.230312         1.959868         1.621298
 H         5.029804        -1.384558         1.445183
 H         5.277536         0.315004         1.713152
 H         4.174012        -0.492742         2.787871
 H         2.459021        -2.005785         0.209283
 H         1.744040        -1.188432         1.704637
 H        -0.489110        -0.075861         1.016401
 H        -0.422631         0.796263        -0.594094
 H        -0.539780        -0.888923        -0.415202
 H         3.998093         1.113091        -1.048618
 H         2.098854         2.878524         1.134234
