19
Iteration:  1370
 C         4.601393        -0.434280         1.626061
 C         3.357284        -0.317468         0.923165
 C         2.168167        -1.275971         0.698815
 C         1.440631        -0.060221         0.071902
 C        -0.024586         0.060600        -0.111832
 O         2.175807         0.222942        -1.197685
 C         3.231495         0.647981        -0.367921
 C         2.388196         0.899909         0.789370
 O         2.249507         2.037965         1.558771
 H         5.437164        -0.750285         0.931558
 H         5.007042         0.567727         1.989954
 H         4.497538        -1.077202         2.576645
 H         2.251005        -2.312663         0.299112
 H         1.731470        -1.390827         1.635827
 H        -0.576541        -0.113970         0.799645
 H        -0.248156         0.964298        -0.652222
 H        -0.361920        -0.748294        -0.742432
 H         4.280334         0.968671        -0.625936
 H         2.082191         2.733902         0.949398
