19
Iteration:  2725
 C         4.694002        -0.535875         1.704901
 C         3.446964        -0.258707         0.836044
 C         2.134916        -1.170054         0.853543
 C         1.437247        -0.023210         0.037242
 C        -0.023721         0.001998        -0.061079
 O         2.182803         0.115060        -1.189988
 C         3.304942         0.593417        -0.433906
 C         2.484076         1.027498         0.705381
 O         2.045692         2.074026         1.531306
 H         5.468290        -0.988377         1.006962
 H         5.125688         0.525808         1.991671
 H         4.417089        -1.377389         2.364971
 H         1.957609        -2.129694         0.197568
 H         1.574566        -1.198407         1.879802
 H        -0.246207         0.108865         1.009027
 H        -0.522189         0.746024        -0.716368
 H        -0.337396        -0.944774        -0.436072
 H         4.148255         0.923956        -0.946025
 H         1.874986         2.950793         0.974073
