19
Iteration:  2530
 C         4.720811        -0.416590         1.563860
 C         3.292259        -0.235851         0.943898
 C         2.171724        -1.217381         0.793171
 C         1.449712         0.009352         0.003987
 C        -0.071606         0.072722        -0.082248
 O         2.248985         0.012782        -1.228530
 C         3.273341         0.565752        -0.305472
 C         2.366546         0.928840         0.830750
 O         2.146376         2.077923         1.521302
 H         5.305488        -0.849003         0.713741
 H         5.096972         0.560836         1.697582
 H         4.621682        -0.965835         2.595502
 H         2.322461        -2.132772         0.215163
 H         1.798160        -1.298792         1.823355
 H        -0.595237         0.285381         0.909047
 H        -0.385275         0.954345        -0.741502
 H        -0.484609        -0.946193        -0.471753
 H         4.174457         1.041859        -0.791984
 H         2.242378         2.673300         0.886064
