19
Iteration:  1509charge 0 multiplicity 1
 C         4.697651        -0.414290         1.650198
 C         3.317515        -0.219265         0.908005
 C         2.195247        -1.215576         0.790637
 C         1.405647        -0.092809        -0.014581
 C        -0.019379         0.174839        -0.193626
 O         2.191327        -0.024448        -1.259661
 C         3.188952         0.673403        -0.455792
 C         2.340977         0.945669         0.775398
 O         2.257068         1.960962         1.759245
 H         5.306650        -1.115776         1.179448
 H         5.278648         0.550895         1.498316
 H         4.614871        -0.503251         2.704991
 H         2.505726        -2.149410         0.255507
 H         1.785658        -1.324405         1.854828
 H        -0.603745         0.198063         0.789168
 H        -0.081367         1.151053        -0.729383
 H        -0.536855        -0.600290        -0.845380
 H         4.023872         1.199160        -0.971139
 H         1.868936         2.635291         1.244399
