19
Iteration:  3090
 C         4.555287        -0.458246         1.757519
 C         3.381855        -0.157690         0.875980
 C         2.257252        -1.156359         0.732266
 C         1.384023        -0.062281         0.017817
 C        -0.088401        -0.060928         0.006306
 O         2.158037         0.070579        -1.285488
 C         3.273357         0.576291        -0.441961
 C         2.382807         1.011694         0.722140
 O         2.324724         2.104999         1.571100
 H         5.164026        -1.210250         1.277682
 H         5.260528         0.267833         1.842421
 H         4.123669        -0.826561         2.740629
 H         2.524451        -2.071737         0.261570
 H         1.759008        -1.424642         1.685484
 H        -0.451712        -0.501393         0.941285
 H        -0.390903         0.916694        -0.257771
 H        -0.377515        -0.772170        -0.845467
 H         4.222878         1.054795        -0.832647
 H         1.549272         2.714514         1.063687
