19
Iteration:  1894
 C         4.574912        -0.425303         1.795965
 C         3.459600        -0.224519         0.780323
 C         2.301710        -1.205083         0.751483
 C         1.450929        -0.070012         0.079905
 C        -0.112097         0.084901        -0.068841
 O         2.120117         0.102147        -1.235411
 C         3.185679         0.702299        -0.510839
 C         2.439873         0.884880         0.783257
 O         2.246344         1.981116         1.584989
 H         5.032342        -1.386249         1.595167
 H         5.290744         0.379642         1.705600
 H         4.178392        -0.455562         2.891322
 H         2.392273        -2.153218         0.191749
 H         1.940270        -1.395673         1.747627
 H        -0.697764        -0.030661         0.840314
 H        -0.287221         1.087248        -0.488894
 H        -0.319825        -0.759112        -0.687459
 H         4.038193         1.062947        -1.080344
 H         1.822216         2.611472         0.847280
