19
Iteration:  4673
 C         4.659422        -0.395734         1.697645
 C         3.292721        -0.178284         0.930482
 C         2.254445        -1.264089         0.690718
 C         1.435777        -0.107296         0.066617
 C        -0.058452        -0.028985        -0.107712
 O         2.150869         0.094374        -1.179180
 C         3.222645         0.661163        -0.479379
 C         2.378238         0.953987         0.755115
 O         2.286758         2.095317         1.586010
 H         5.196697        -1.268808         1.179352
 H         5.480252         0.341341         1.606203
 H         4.375128        -0.465904         2.811898
 H         2.537340        -2.259604         0.234353
 H         1.728019        -1.543124         1.632063
 H        -0.514986        -0.458701         0.799715
 H        -0.372800         1.055710        -0.156871
 H        -0.388159        -0.561856        -1.012225
 H         3.998034         1.026771        -1.050990
 H         1.600431         2.673522         1.298425
