19
Iteration:  4917
 C         4.671518        -0.273261         1.679584
 C         3.316710        -0.151763         0.852033
 C         2.187833        -1.191121         0.767517
 C         1.388464        -0.083175         0.066193
 C        -0.091204        -0.011354        -0.106342
 O         2.200191         0.047578        -1.240208
 C         3.263776         0.562571        -0.539960
 C         2.371175         1.000209         0.662764
 O         2.266149         1.954261         1.741641
 H         5.222683        -1.118902         1.453029
 H         5.213558         0.705625         1.668772
 H         4.468719        -0.601954         2.670973
 H         2.374311        -2.109602         0.167648
 H         1.836786        -1.459268         1.729713
 H        -0.463255        -0.177288         0.948321
 H        -0.412519         0.969637        -0.348592
 H        -0.457026        -0.778367        -0.788948
 H         4.185868         0.779491        -1.009930
 H         2.126942         2.793423         1.395231
