19
Iteration:   605charge 0 multiplicity 1
 C         4.575713        -0.445421         1.739215
 C         3.386336        -0.161912         0.855930
 C         2.151026        -1.194450         0.804749
 C         1.445367        -0.035577         0.016977
 C        -0.046035         0.035629        -0.099390
 O         2.201615         0.019899        -1.238892
 C         3.222664         0.597067        -0.529540
 C         2.453657         1.022856         0.731459
 O         2.225707         2.022819         1.652664
 H         5.282106        -1.150332         1.190376
 H         5.205485         0.386556         1.989338
 H         4.275170        -0.973220         2.675171
 H         2.285152        -2.073403         0.186894
 H         1.853305        -1.413702         1.776070
 H        -0.479556        -0.202297         0.862040
 H        -0.459384         1.027249        -0.433754
 H        -0.482404        -0.695463        -0.789496
 H         4.036874         1.039111        -1.078791
 H         2.239929         2.813520         1.260056
