19
Iteration:   860
 C         4.673387        -0.385293         1.676137
 C         3.321264        -0.224536         0.925031
 C         2.112382        -1.241486         0.720765
 C         1.398687        -0.100659         0.018777
 C        -0.122995        -0.010436        -0.165328
 O         2.174416         0.159762        -1.256631
 C         3.240383         0.601713        -0.403920
 C         2.469420         0.974699         0.812302
 O         2.355988         2.040501         1.643084
 H         5.084464        -1.354243         1.478954
 H         5.470055         0.312681         1.428047
 H         4.474794        -0.308996         2.718589
 H         2.282125        -2.118337         0.044845
 H         1.574165        -1.510175         1.730370
 H        -0.651501        -0.206223         0.833905
 H        -0.447003         0.874028        -0.697601
 H        -0.468826        -0.846420        -0.826421
 H         4.162244         1.137991        -0.600132
 H         1.786263         2.710094         1.194013
