19
Iteration:  4065
 C         4.728020        -0.340863         1.576461
 C         3.323622        -0.221643         0.915341
 C         2.163520        -1.131034         0.832412
 C         1.380380        -0.049402         0.048351
 C        -0.132098        -0.044470        -0.221561
 O         2.179368         0.015462        -1.184282
 C         3.280849         0.587109        -0.375454
 C         2.408304         0.911155         0.815595
 O         2.295748         2.089533         1.626893
 H         5.267319        -1.173587         1.125868
 H         5.393711         0.470509         1.472612
 H         4.622628        -0.534773         2.664910
 H         2.283799        -2.105318         0.318185
 H         1.613399        -1.434108         1.804152
 H        -0.884740        -0.193842         0.596190
 H        -0.512201         0.929654        -0.573457
 H        -0.443514        -0.712015        -1.031372
 H         4.116405         1.086220        -0.895031
 H         1.971770         2.715828         0.843145
