19
Iteration:   513charge 0 multiplicity 1
 C         4.636777        -0.463593         1.659960
 C         3.345769        -0.241441         0.895289
 C         2.216836        -1.224022         0.782986
 C         1.344844        -0.138655        -0.016732
 C        -0.167483        -0.000284        -0.127551
 O         2.244705         0.079229        -1.268944
 C         3.254538         0.659250        -0.383412
 C         2.483752         1.016181         0.770093
 O         2.234347         2.113239         1.651766
 H         5.154039        -1.344312         1.352200
 H         5.358901         0.323697         1.459405
 H         4.494217        -0.600983         2.729630
 H         2.235137        -2.197110         0.228602
 H         1.802568        -1.303256         1.855978
 H        -0.678702         0.047764         0.872839
 H        -0.268970         0.892773        -0.732371
 H        -0.639495        -0.723045        -0.827458
 H         4.259079         1.008499        -0.659362
 H         2.096942         2.788345         1.120079
