19
Iteration:  3619charge 0 multiplicity 1
 C         4.598198        -0.435808         1.730502
 C         3.338714        -0.212176         0.860019
 C         2.272832        -1.217723         0.743539
 C         1.475776        -0.026913         0.117418
 C        -0.009075        -0.006333         0.014642
 O         2.121763         0.090408        -1.248280
 C         3.238902         0.577749        -0.492252
 C         2.405487         0.974511         0.714195
 O         2.142930         2.061314         1.520308
 H         5.115630        -1.370036         1.322468
 H         5.256882         0.371714         1.804839
 H         4.342136        -0.650470         2.810991
 H         2.430338        -2.045868         0.058385
 H         2.000848        -1.559029         1.778127
 H        -0.587736         0.023276         0.937638
 H        -0.333820         0.948324        -0.395739
 H        -0.342770        -0.676346        -0.634530
 H         4.114337         1.092347        -1.035962
 H         2.768129         2.858636         1.231856
