19
Iteration:  4899
 C         4.550506        -0.253345         1.618224
 C         3.341163        -0.210934         0.878655
 C         2.264574        -1.227957         0.766524
 C         1.429674        -0.048103         0.011699
 C        -0.054269         0.036749        -0.133642
 O         2.114777        -0.047074        -1.210929
 C         3.216146         0.648907        -0.403195
 C         2.481210         0.917960         0.777715
 O         2.318673         2.008736         1.681672
 H         5.274568        -1.059663         1.204626
 H         5.074991         0.694207         1.414831
 H         4.449904        -0.497463         2.729054
 H         2.300746        -2.090341         0.120164
 H         1.809897        -1.416279         1.856426
 H        -0.746494        -0.456529         0.548492
 H        -0.324732         1.061737        -0.451859
 H        -0.287206        -0.641054        -0.964304
 H         3.878114         1.310549        -1.008129
 H         1.749708         2.602237         1.325037
