19
Iteration:   779
 C         4.604240        -0.393044         1.624946
 C         3.300508        -0.281029         0.886371
 C         2.206313        -1.266995         0.742904
 C         1.463272        -0.067257         0.069695
 C        -0.007566         0.074892        -0.086777
 O         2.201164         0.125093        -1.221041
 C         3.278507         0.544024        -0.392066
 C         2.390493         0.933170         0.804076
 O         2.179536         2.067120         1.575672
 H         5.380948        -1.064152         1.142854
 H         5.037613         0.568731         1.790150
 H         4.497054        -0.728976         2.694498
 H         2.142676        -2.076374        -0.060809
 H         1.845701        -1.555303         1.701615
 H        -0.506721         0.126878         0.850335
 H        -0.137108         1.149300        -0.398195
 H        -0.551296        -0.613065        -0.739257
 H         4.068462         1.121009        -0.937622
 H         2.158891         2.727123         0.987011
