19
Iteration:  2762charge 0 multiplicity 1
 C         4.618136        -0.414437         1.659691
 C         3.290751        -0.203984         0.951479
 C         2.223809        -1.300182         0.683028
 C         1.430610        -0.120168         0.018417
 C        -0.066935         0.027700        -0.037580
 O         2.194320         0.110797        -1.196746
 C         3.255075         0.605877        -0.327337
 C         2.337961         0.947327         0.766434
 O         2.215558         2.126850         1.458258
 H         5.388778        -1.051896         1.049219
 H         5.170928         0.407626         1.956663
 H         4.427177        -0.881055         2.686155
 H         2.618862        -2.079688        -0.069611
 H         1.952895        -1.791617         1.650400
 H        -0.274013         0.235118         0.994859
 H        -0.377266         0.903786        -0.549615
 H        -0.776504        -0.798046        -0.259415
 H         4.207110         1.148369        -0.703851
 H         2.879112         2.860801         0.979558
