19
Iteration:  3857
 C         4.677986        -0.392216         1.642619
 C         3.316485        -0.257026         0.841690
 C         2.070310        -1.172929         0.800225
 C         1.456360        -0.161067         0.007229
 C        -0.037986        -0.059548        -0.120699
 O         2.152233        -0.003921        -1.294767
 C         3.243896         0.676012        -0.432025
 C         2.457560         1.014359         0.825879
 O         2.276605         2.139926         1.678138
 H         5.402543        -1.069486         1.099239
 H         5.138282         0.617129         1.796689
 H         4.498978        -0.709936         2.735896
 H         2.120337        -2.126765         0.386593
 H         1.611418        -1.143397         1.798881
 H        -0.428054        -0.281479         0.859693
 H        -0.358938         0.947598        -0.439282
 H        -0.382645        -0.742940        -0.925130
 H         4.147125         0.954466        -0.872898
 H         2.032637         2.865038         1.138392
