19
Iteration:  4173charge 0 multiplicity 1
 C         4.653134        -0.371733         1.713803
 C         3.394860        -0.187429         0.914896
 C         2.207331        -1.266344         0.701882
 C         1.423919        -0.082175         0.030059
 C        -0.089556         0.065039        -0.033021
 O         2.162075         0.080334        -1.231100
 C         3.271833         0.550463        -0.441335
 C         2.444782         0.972079         0.744299
 O         2.175288         2.048159         1.574223
 H         5.256240        -1.163941         1.267759
 H         5.300200         0.658031         1.807146
 H         4.380899        -0.785961         2.697442
 H         2.398385        -2.214559         0.130515
 H         1.726648        -1.525038         1.700093
 H        -0.511339         0.226417         1.011174
 H        -0.276366         0.940887        -0.684912
 H        -0.425919        -0.924860        -0.408022
 H         4.042896         1.024981        -0.953147
 H         1.891959         2.808446         0.866431
