19
Iteration:  3984
 C         4.528259        -0.415311         1.763874
 C         3.360385        -0.203388         0.860256
 C         2.254721        -1.207363         0.766009
 C         1.479822        -0.098896         0.072845
 C        -0.012865         0.014535        -0.000387
 O         2.135134         0.080753        -1.290450
 C         3.241437         0.618330        -0.523515
 C         2.515429         0.975676         0.735315
 O         2.121937         2.053969         1.551064
 H         5.084851        -1.222806         1.365132
 H         5.239839         0.472428         1.873111
 H         4.239919        -0.747890         2.704025
 H         2.315640        -2.107259         0.074918
 H         1.910041        -1.314809         1.758496
 H        -0.331854         0.052002         1.053888
 H        -0.386424         0.867378        -0.575396
 H        -0.486053        -0.956560        -0.291399
 H         4.102901         1.020274        -0.964530
 H         2.643752         2.838861         1.223849
