19
Iteration:  3684charge 0 multiplicity 1
 C         4.669085        -0.359720         1.590135
 C         3.331792        -0.257053         0.972402
 C         2.187160        -1.235680         0.743509
 C         1.372566        -0.097315         0.034523
 C        -0.071242        -0.049458        -0.173338
 O         2.129054         0.013271        -1.178197
 C         3.182180         0.577146        -0.391666
 C         2.456775         0.989099         0.820825
 O         2.264219         2.203280         1.587204
 H         5.373897        -1.033937         1.003811
 H         5.060647         0.590129         1.592729
 H         4.571610        -0.774304         2.651939
 H         2.334370        -2.118465         0.071873
 H         1.804451        -1.641781         1.769519
 H        -0.589331        -0.203153         0.814682
 H        -0.151560         1.034024        -0.367477
 H        -0.297100        -0.656057        -1.004969
 H         4.135978         0.929811        -0.946789
 H         2.774041         2.865448         1.210807
