19
Iteration:  3656
 C         4.583682        -0.432163         1.669371
 C         3.357463        -0.236533         0.872305
 C         2.131817        -1.120776         0.849364
 C         1.380107        -0.034591         0.097260
 C        -0.114330        -0.103538        -0.012825
 O         2.220829         0.122660        -1.247810
 C         3.295438         0.651274        -0.474765
 C         2.471904         0.977360         0.699239
 O         2.209045         2.014720         1.506721
 H         5.351223        -1.004710         1.149652
 H         5.160557         0.599390         1.734874
 H         4.408498        -0.924487         2.597132
 H         2.071671        -2.104881         0.390296
 H         1.880990        -1.184033         1.871786
 H        -0.458896        -0.565557         0.934118
 H        -0.375266         0.931710        -0.294398
 H        -0.382018        -0.876625        -0.859648
 H         4.123416         1.096750        -0.916452
 H         2.920831         2.683928         1.337270
