19
Iteration:  4612
 C         4.666857        -0.475341         1.641785
 C         3.411624        -0.248051         0.941153
 C         2.233255        -1.227790         0.703576
 C         1.437704        -0.004924         0.105131
 C        -0.013911        -0.085007        -0.055368
 O         2.112576         0.166141        -1.282274
 C         3.245076         0.590015        -0.433783
 C         2.391593         0.953285         0.844313
 O         2.114004         2.107454         1.527641
 H         5.195985        -1.246147         1.209562
 H         5.178174         0.516170         1.775860
 H         4.531442        -0.717890         2.655220
 H         2.438738        -2.138369         0.177755
 H         1.793357        -1.349853         1.667879
 H        -0.469859        -0.015838         0.918609
 H        -0.438460         0.784385        -0.599681
 H        -0.308948        -1.017136        -0.555940
 H         4.256723         1.018251        -0.781864
 H         2.579733         3.025221         1.133855
