19
Iteration:   273
 C         4.579678        -0.308717         1.664553
 C         3.352529        -0.267381         0.884437
 C         2.121975        -1.221197         0.838402
 C         1.356404        -0.096564         0.026224
 C        -0.141458        -0.020785        -0.163110
 O         2.181092         0.082100        -1.226469
 C         3.318381         0.631406        -0.455102
 C         2.432013         0.993248         0.744452
 O         2.413423         2.075678         1.569353
 H         5.129199        -1.203145         1.298653
 H         5.210599         0.625943         1.494276
 H         4.358440        -0.432870         2.759373
 H         2.160811        -2.297088         0.494243
 H         1.744561        -1.156277         1.860790
 H        -0.699553        -0.179936         0.752354
 H        -0.440147         0.967813        -0.578346
 H        -0.375474        -0.836318        -0.866703
 H         4.229651         0.908801        -1.021834
 H         1.800967         1.823824         2.326573
