19
Iteration:   658charge 0 multiplicity 1
 C         4.641557        -0.305164         1.552940
 C         3.264003        -0.303729         0.984837
 C         2.062108        -1.288772         0.791610
 C         1.446440        -0.104067        -0.002274
 C        -0.048462         0.006553        -0.241367
 O         2.157047         0.066376        -1.178049
 C         3.217206         0.681577        -0.356113
 C         2.416657         0.946902         0.803016
 O         2.419340         2.055140         1.669095
 H         5.335206        -1.095984         1.325189
 H         5.047075         0.538093         1.181261
 H         4.744841        -0.016973         2.595901
 H         2.189569        -2.268207         0.201387
 H         1.536149        -1.446390         1.708442
 H        -0.845411         0.142545         0.462865
 H        -0.180929         0.931310        -0.839797
 H        -0.203933        -0.830883        -0.925096
 H         4.177427         1.020552        -0.715453
 H         1.845269         2.736359         1.258718
