19
Iteration:  3834charge 0 multiplicity 1
 C         4.622492        -0.328307         1.637569
 C         3.257817        -0.220283         0.942162
 C         2.214977        -1.278168         0.746187
 C         1.405341        -0.054314         0.058978
 C        -0.138951         0.029665        -0.091651
 O         2.202086         0.122517        -1.169712
 C         3.304598         0.528520        -0.401872
 C         2.383387         0.934178         0.768184
 O         2.328771         2.043890         1.533554
 H         5.234212        -1.034274         1.056642
 H         5.139716         0.730218         1.723185
 H         4.539995        -0.570971         2.732815
 H         2.456124        -2.001707         0.002102
 H         1.845510        -1.683986         1.673214
 H        -0.524060        -0.135143         0.876361
 H        -0.602151         0.897989        -0.576756
 H        -0.320206        -0.844199        -0.805749
 H         4.069834         1.043702        -0.946288
 H         1.931406         2.858478         1.024852
