19
Iteration:   866charge 0 multiplicity 1
 C         4.678305        -0.378423         1.683225
 C         3.365245        -0.238694         0.985005
 C         2.120362        -1.241022         0.664227
 C         1.397864        -0.089185         0.001567
 C        -0.125540        -0.032530        -0.125874
 O         2.168598         0.165461        -1.257943
 C         3.201628         0.650365        -0.371491
 C         2.475334         0.962800         0.830722
 O         2.377255         2.025113         1.583108
 H         4.952879        -1.480595         1.494406
 H         5.468837         0.375979         1.545063
 H         4.348500        -0.386888         2.785173
 H         2.157506        -2.189715         0.108277
 H         1.592701        -1.413535         1.543245
 H        -0.670961        -0.092839         0.786995
 H        -0.420585         0.930874        -0.590366
 H        -0.400217        -0.851609        -0.781614
 H         4.149008         1.094170        -0.697873
 H         1.597560         2.628281         1.087746
