19
Iteration:  1154
 C         4.701738        -0.411553         1.578973
 C         3.330702        -0.226120         0.963712
 C         2.105871        -1.193416         0.769042
 C         1.450898        -0.022589         0.011940
 C        -0.074926         0.080280        -0.146851
 O         2.187826         0.030259        -1.273152
 C         3.315494         0.638790        -0.352808
 C         2.409487         0.979530         0.755613
 O         2.213558         1.957078         1.674848
 H         5.219982        -0.889670         0.685193
 H         5.086776         0.510453         1.888238
 H         4.783691        -1.198685         2.350463
 H         2.145984        -2.253540         0.492170
 H         1.522277        -1.225793         1.685281
 H        -0.545362         0.064622         0.832138
 H        -0.266208         1.058024        -0.596911
 H        -0.453290        -0.724475        -0.802365
 H         4.198719         1.153013        -0.664990
 H         1.873631         2.824635         1.242769
