19
Iteration:  1032
 C         4.615495        -0.423282         1.708574
 C         3.386368        -0.267000         0.823580
 C         2.152438        -1.128091         0.837335
 C         1.415241        -0.023972         0.025697
 C        -0.102948        -0.083698        -0.157785
 O         2.171086         0.169210        -1.264081
 C         3.227580         0.632684        -0.474852
 C         2.454092         0.987409         0.725426
 O         2.300916         1.945086         1.696797
 H         4.954254        -1.541534         1.652913
 H         5.337368         0.308100         1.388425
 H         4.332572        -0.217855         2.809988
 H         2.194816        -2.071899         0.259429
 H         1.659464        -1.339069         1.753275
 H        -0.580089        -0.199705         0.857670
 H        -0.289401         0.934377        -0.414905
 H        -0.468302        -0.816694        -0.866082
 H         4.148296         1.138255        -0.871759
 H         2.240628         2.907162         1.142723
