19
Iteration:   392charge 0 multiplicity 1
 C         4.595541        -0.478523         1.851368
 C         3.431117        -0.306098         0.851913
 C         2.164857        -1.210501         0.669460
 C         1.438011        -0.048664         0.040344
 C        -0.029741         0.041983         0.063189
 O         2.178117         0.162892        -1.251525
 C         3.269942         0.583549        -0.484150
 C         2.455251         0.925098         0.726707
 O         2.122847         2.109100         1.447898
 H         5.339452        -1.263987         1.645634
 H         5.188690         0.474704         2.133437
 H         4.043602        -0.922235         2.694671
 H         2.223427        -2.023321        -0.033033
 H         1.761598        -1.477284         1.695837
 H        -0.231662        -0.134510         1.130030
 H        -0.493024         0.994464        -0.282588
 H        -0.543053        -0.756509        -0.537957
 H         4.065245         1.122671        -0.970590
 H         2.784578         2.814737         1.236875
