19
Iteration:  2198charge 0 multiplicity 1
 C         4.635234        -0.325976         1.703746
 C         3.375258        -0.252010         0.863471
 C         2.230664        -1.299895         0.771770
 C         1.405001        -0.122606         0.068913
 C        -0.046350         0.055961        -0.232987
 O         2.072396         0.106143        -1.187751
 C         3.176074         0.535363        -0.456111
 C         2.384016         0.907200         0.786503
 O         2.372308         2.131579         1.645926
 H         5.113978        -1.236057         1.416132
 H         5.358881         0.538828         1.689032
 H         4.434057        -0.476239         2.772970
 H         2.254302        -2.125884         0.147822
 H         1.989619        -1.458728         1.772915
 H        -0.706152        -0.065647         0.647176
 H        -0.208630         1.038703        -0.773126
 H        -0.377712        -0.810731        -0.860041
 H         3.975328         1.092804        -0.850513
 H         1.990646         2.980601         1.138663
