19
Iteration:  1602
 C         4.579023        -0.465071         1.721851
 C         3.395940        -0.216746         0.882921
 C         2.249755        -1.308550         0.648584
 C         1.384887        -0.096123         0.003360
 C        -0.102642        -0.053347        -0.125880
 O         2.085707         0.139933        -1.171854
 C         3.205384         0.685972        -0.418434
 C         2.418387         0.945934         0.867169
 O         2.370787         2.153947         1.579934
 H         5.315972        -1.208572         1.245873
 H         5.103562         0.418780         2.036316
 H         3.992357        -0.785241         2.624382
 H         2.444562        -2.128052        -0.108451
 H         1.904754        -1.597591         1.636894
 H        -0.524259        -0.186280         0.859903
 H        -0.365593         0.833754        -0.689772
 H        -0.269723        -0.877922        -0.796382
 H         4.071860         1.288213        -0.811712
 H         2.311204         2.900248         1.014191
