19
Iteration:   781charge 0 multiplicity 1
 C         4.615289        -0.380876         1.624202
 C         3.315876        -0.273225         0.879225
 C         2.190295        -1.247658         0.764890
 C         1.460284        -0.077209         0.060876
 C        -0.012820         0.070719        -0.107569
 O         2.187104         0.130135        -1.228677
 C         3.291139         0.543468        -0.379714
 C         2.400096         0.923665         0.810142
 O         2.174117         2.054800         1.588585
 H         5.363412        -1.042803         1.144539
 H         5.076070         0.520030         1.741906
 H         4.455954        -0.738362         2.655119
 H         2.145907        -2.059238        -0.022616
 H         1.844395        -1.576646         1.762837
 H        -0.497770         0.090587         0.883638
 H        -0.105686         1.130776        -0.463215
 H        -0.614453        -0.558332        -0.760898
 H         4.041186         1.085888        -0.969359
 H         2.245735         2.738597         0.940257
