19
Iteration:  3860charge 0 multiplicity 1
 C         4.691908        -0.395221         1.644397
 C         3.338149        -0.219961         0.847646
 C         2.060825        -1.166385         0.826713
 C         1.438513        -0.166684        -0.015404
 C        -0.014542        -0.051924        -0.123641
 O         2.153869         0.014663        -1.278117
 C         3.241033         0.645070        -0.447958
 C         2.427297         1.004045         0.815382
 O         2.276188         2.126728         1.678609
 H         5.383692        -1.108542         1.102228
 H         5.118336         0.488779         1.832585
 H         4.497432        -0.711259         2.702730
 H         2.076080        -2.163614         0.340809
 H         1.648654        -1.064173         1.867479
 H        -0.451149        -0.417765         0.878638
 H        -0.339321         0.921560        -0.530247
 H        -0.355034        -0.702974        -0.883432
 H         4.146774         1.048811        -0.976127
 H         2.053868         2.917751         1.183556
