19
Iteration:  3853
 C         4.651124        -0.386188         1.640625
 C         3.309950        -0.290417         0.857808
 C         2.103889        -1.183466         0.785411
 C         1.450227        -0.118822         0.018494
 C        -0.060404        -0.065603        -0.126369
 O         2.161970        -0.012334        -1.295178
 C         3.227697         0.688334        -0.412177
 C         2.484466         1.018133         0.818234
 O         2.282553         2.137115         1.676431
 H         5.379766        -0.989026         1.156946
 H         5.141505         0.711524         1.703760
 H         4.506840        -0.726860         2.632516
 H         2.191538        -2.257741         0.373456
 H         1.578950        -1.281538         1.735740
 H        -0.489433        -0.159067         0.881341
 H        -0.367846         0.970612        -0.326524
 H        -0.423376        -0.792827        -0.909692
 H         4.253734         0.918174        -0.837736
 H         1.971483         2.923701         0.998011
