19
Iteration:  3715charge 0 multiplicity 1
 C         4.709662        -0.335408         1.569069
 C         3.372167        -0.245434         0.949736
 C         2.229995        -1.310389         0.828093
 C         1.369290        -0.006027         0.040425
 C        -0.084802         0.035273        -0.214603
 O         2.114941         0.096615        -1.163339
 C         3.191718         0.586005        -0.300847
 C         2.360629         0.864617         0.820841
 O         2.347792         2.082585         1.497126
 H         5.188229        -1.228595         1.137122
 H         5.250910         0.552762         1.522035
 H         4.527793        -0.426267         2.689780
 H         2.398762        -2.232123         0.231256
 H         1.900880        -1.571023         1.897831
 H        -0.642107         0.076369         0.731865
 H        -0.408656         0.998406        -0.709492
 H        -0.288143        -0.857936        -0.959312
 H         4.044164         1.215954        -0.784375
 H         1.700235         2.799444         1.085622
