19
Iteration:  2204
 C         4.592909        -0.309395         1.716790
 C         3.395955        -0.270076         0.835165
 C         2.208699        -1.285521         0.748129
 C         1.331490        -0.120453         0.075885
 C        -0.040242         0.020840        -0.189542
 O         2.080828         0.136662        -1.180359
 C         3.208751         0.555694        -0.431049
 C         2.444719         0.944426         0.825652
 O         2.372863         2.092758         1.597060
 H         5.246760        -1.203814         1.427796
 H         5.424764         0.420879         1.599700
 H         4.307019        -0.324672         2.794063
 H         2.334207        -2.342186         0.219530
 H         1.848128        -1.631647         1.807840
 H        -0.752919         0.020016         0.622941
 H        -0.157640         0.970333        -0.685844
 H        -0.275905        -0.725351        -0.979230
 H         4.018885         1.129378        -0.987263
 H         1.898303         2.849900         1.037510
