19
Iteration:   954
 C         4.613233        -0.439267         1.612008
 C         3.351828        -0.277386         0.903736
 C         2.143729        -1.237096         0.793290
 C         1.397328        -0.109053         0.052150
 C        -0.026230         0.102696        -0.123376
 O         2.223635         0.170359        -1.234384
 C         3.247813         0.597632        -0.412016
 C         2.454249         0.922913         0.778234
 O         2.184977         2.032472         1.599927
 H         5.510862        -0.841122         0.954383
 H         4.862885         0.584344         1.862284
 H         4.552805        -0.950944         2.664897
 H         2.255060        -2.196759         0.260440
 H         1.799989        -1.286676         1.763377
 H        -0.380246         0.094146         0.932875
 H        -0.317289         1.044934        -0.619270
 H        -0.481277        -0.767406        -0.586591
 H         4.167887         0.928196        -0.851125
 H         2.163762         2.679209         1.013777
