19
Iteration:   516
 C         4.620468        -0.466178         1.664371
 C         3.332275        -0.250977         0.890574
 C         2.215904        -1.249832         0.749621
 C         1.373980        -0.147577         0.015084
 C        -0.165066         0.009373        -0.116959
 O         2.252062         0.101109        -1.249087
 C         3.245487         0.660190        -0.379623
 C         2.486142         1.010268         0.796445
 O         2.238326         2.109859         1.613506
 H         5.161588        -1.432811         1.278585
 H         5.249636         0.396356         1.458422
 H         4.517141        -0.535155         2.815036
 H         2.321739        -2.236707         0.262307
 H         1.797828        -1.313774         1.703797
 H        -0.693720         0.091402         0.856005
 H        -0.291561         0.950099        -0.679519
 H        -0.595494        -0.770557        -0.779426
 H         4.255249         1.002638        -0.705528
 H         1.980995         2.949729         1.018667
