19
Iteration:  1595
 C         4.566841        -0.478582         1.751287
 C         3.368089        -0.201260         0.838874
 C         2.313515        -1.289568         0.649158
 C         1.352279        -0.052322         0.051011
 C        -0.096991        -0.041285        -0.134251
 O         2.153501         0.144135        -1.203712
 C         3.146783         0.645337        -0.374669
 C         2.361348         0.980666         0.852399
 O         2.392747         2.109400         1.550950
 H         5.183769        -1.235074         1.182529
 H         5.089894         0.442103         2.208386
 H         4.238863        -1.062834         2.602290
 H         2.627875        -2.009148        -0.048729
 H         2.038291        -1.803197         1.643403
 H        -0.422394        -0.013093         0.952534
 H        -0.495242         0.927475        -0.477044
 H        -0.370135        -0.960576        -0.725446
 H         3.912877         1.283482        -0.747961
 H         2.172656         2.883555         0.740773
