19
Iteration:  3381charge 0 multiplicity 1
 C         4.717418        -0.403019         1.613027
 C         3.374369        -0.273739         0.961868
 C         2.124931        -1.201094         0.775353
 C         1.475616        -0.072329        -0.013028
 C        -0.009701         0.074438        -0.121194
 O         2.180434         0.095780        -1.190936
 C         3.223205         0.572497        -0.407273
 C         2.409748         0.944984         0.757476
 O         2.182776         2.070475         1.582641
 H         5.294263        -1.337445         1.337992
 H         5.358226         0.509352         1.472911
 H         4.589064        -0.544438         2.669321
 H         2.298597        -2.265394         0.327249
 H         1.745421        -1.188391         1.818509
 H        -0.475480         0.365029         0.859314
 H        -0.414997         0.870308        -0.796519
 H        -0.324998        -0.930400        -0.515213
 H         3.984397         1.014647        -0.973162
 H         1.208243         2.406454         1.229755
