19
Iteration:  4106
 C         4.515631        -0.332794         1.711423
 C         3.355828        -0.167488         0.863743
 C         2.263964        -1.171306         0.767910
 C         1.427170        -0.062253         0.094813
 C        -0.095254        -0.045253        -0.103047
 O         2.143167         0.108426        -1.201493
 C         3.238950         0.559557        -0.478558
 C         2.470095         0.954909         0.728967
 O         2.285346         2.003135         1.576749
 H         5.014302        -1.274486         1.466212
 H         5.401706         0.488806         1.490899
 H         4.214028        -0.456732         2.732798
 H         2.401225        -2.182926         0.266503
 H         1.741047        -1.429397         1.725584
 H        -0.703552        -0.335268         0.802805
 H        -0.438487         0.978022        -0.393188
 H        -0.270874        -0.947437        -0.780542
 H         4.125569         0.969702        -1.061844
 H         2.399900         2.841857         1.215369
