19
Iteration:  3183charge 0 multiplicity 1
 C         4.592916        -0.399472         1.543476
 C         3.285127        -0.177022         0.973761
 C         2.175053        -1.155039         0.854385
 C         1.455017        -0.015720         0.098836
 C         0.027512         0.042063        -0.136700
 O         2.235181         0.006169        -1.230675
 C         3.247525         0.608412        -0.536579
 C         2.397394         0.999200         0.729514
 O         2.121539         1.973875         1.667241
 H         5.169053        -1.321244         1.055663
 H         5.449516         0.354905         1.469892
 H         4.570022        -0.597466         2.609220
 H         2.461875        -2.159725         0.363884
 H         1.536663        -1.425668         1.717763
 H        -0.436492         0.176410         0.822501
 H        -0.255343         0.777829        -0.890605
 H        -0.310975        -0.893287        -0.397700
 H         4.073056         1.094093        -0.958133
 H         2.717491         2.743332         1.396699
