19
Iteration:    37charge 0 multiplicity 1
 C         4.458730        -0.412295         1.899776
 C         3.383034        -0.271810         0.877936
 C         2.277633        -1.216991         0.728221
 C         1.428089        -0.056819        -0.029922
 C        -0.089413        -0.072945         0.039643
 O         2.084014         0.080866        -1.266780
 C         3.209511         0.584857        -0.583300
 C         2.529569         0.999583         0.721120
 O         2.312950         2.197808         1.471088
 H         5.355741        -1.071857         1.575627
 H         4.874554         0.567196         2.105914
 H         4.043104        -0.787788         2.879619
 H         2.430305        -2.186424         0.028943
 H         1.740327        -1.393213         1.693585
 H        -0.361400        -0.344397         1.053393
 H        -0.515531         0.939543        -0.119907
 H        -0.540548        -0.795654        -0.652334
 H         4.066103         0.932045        -1.169184
 H         3.045522         2.306296         1.969485
