19
Iteration:  4777charge 0 multiplicity 1
 C         4.613893        -0.418213         1.702851
 C         3.403180        -0.323210         0.865836
 C         2.264885        -1.275787         0.715655
 C         1.434371        -0.092468         0.048812
 C        -0.062537        -0.026950        -0.071223
 O         2.128686         0.206257        -1.202091
 C         3.225335         0.622983        -0.470602
 C         2.484616         0.958895         0.793797
 O         2.211500         2.117970         1.588714
 H         5.229309        -1.214524         1.371482
 H         5.102970         0.629712         1.719924
 H         4.582219        -0.776215         2.724091
 H         2.375036        -2.189386         0.083433
 H         1.905871        -1.471088         1.773886
 H        -0.716984         0.286964         0.804474
 H        -0.376925         0.539072        -0.894223
 H        -0.410144        -1.027612        -0.336605
 H         3.937494         1.243740        -1.034284
 H         1.425497         2.712872         1.073484
