19
Iteration:  1791
 C         4.590049        -0.517200         1.720806
 C         3.390400        -0.216065         0.856819
 C         2.212651        -1.246257         0.728666
 C         1.412847        -0.074691         0.185782
 C        -0.074054        -0.051208        -0.162583
 O         2.094511         0.178588        -1.170656
 C         3.256301         0.708695        -0.475409
 C         2.442311         0.971150         0.747189
 O         2.296833         2.066362         1.559918
 H         5.405265        -1.026852         1.127457
 H         5.126211         0.447419         2.093191
 H         4.274371        -1.077730         2.539146
 H         2.373518        -2.301311         0.317063
 H         1.971964        -1.389715         1.884691
 H        -0.682251        -0.190756         0.739413
 H        -0.329117         0.733039        -0.833389
 H        -0.237444        -0.894501        -0.834475
 H         4.120296         1.238631        -1.003000
 H         1.807155         2.914451         1.021303
