19
Iteration:   877charge 0 multiplicity 1
 C         4.592745        -0.460891         1.776048
 C         3.337392        -0.316062         0.938708
 C         2.188888        -1.221404         0.654479
 C         1.411952        -0.019515        -0.001264
 C        -0.069408        -0.045320        -0.077666
 O         2.158310         0.197215        -1.200262
 C         3.241280         0.727977        -0.416710
 C         2.394452         0.822410         0.803049
 O         2.362884         2.094442         1.522344
 H         5.280679        -1.344700         1.449640
 H         5.265936         0.385346         1.527153
 H         4.539072        -0.456538         2.924100
 H         2.350686        -2.140529         0.077284
 H         1.709699        -1.433019         1.549865
 H        -0.466847        -0.114144         0.910113
 H        -0.395396         0.920752        -0.526403
 H        -0.473725        -0.833100        -0.699598
 H         3.976402         1.081945        -1.117728
 H         1.569567         2.684712         1.125188
