19
Iteration:  3903charge 0 multiplicity 1
 C         4.676233        -0.385834         1.636169
 C         3.346239        -0.224295         0.865608
 C         2.149546        -1.211231         0.787653
 C         1.429846        -0.063991         0.110951
 C        -0.088191        -0.059014        -0.199855
 O         2.170722         0.035475        -1.166824
 C         3.227240         0.590261        -0.481091
 C         2.444751         1.014850         0.796726
 O         2.277103         2.134209         1.646131
 H         5.272816        -1.274951         1.196003
 H         5.296839         0.458999         1.626338
 H         4.408883        -0.521534         2.741790
 H         2.201485        -2.081506         0.203308
 H         1.764869        -1.514294         1.796316
 H        -0.708431        -0.176822         0.731257
 H        -0.371151         0.913939        -0.628316
 H        -0.191121        -0.793853        -0.974868
 H         4.050545         0.947447        -1.154761
 H         1.743014         2.661367         1.099189
