19
Iteration:   422charge 0 multiplicity 1
 C         4.533325        -0.298600         1.719367
 C         3.264636        -0.254465         0.959001
 C         2.208927        -1.340828         0.656601
 C         1.404401        -0.102895         0.075037
 C        -0.075543         0.080673        -0.087086
 O         2.244028         0.094137        -1.219590
 C         3.167412         0.589857        -0.425000
 C         2.386174         0.923693         0.733919
 O         2.397025         2.092456         1.586150
 H         5.085311        -1.093016         1.307122
 H         5.108225         0.648805         1.698461
 H         4.303425        -0.604156         2.713833
 H         2.487300        -2.105262        -0.122775
 H         1.857089        -1.812543         1.667027
 H        -0.498730        -0.065495         0.900676
 H        -0.443125         1.039338        -0.532080
 H        -0.412113        -0.764445        -0.720245
 H         4.035272         1.084013        -0.877074
 H         2.409022         2.777564         1.012544
