19
Iteration:  4458charge 0 multiplicity 1
 C         4.649979        -0.456913         1.698840
 C         3.388343        -0.275079         0.935932
 C         2.174964        -1.258376         0.659618
 C         1.422352        -0.078190         0.110185
 C        -0.055738        -0.108145        -0.080651
 O         2.156997         0.159761        -1.187019
 C         3.236680         0.719258        -0.427387
 C         2.427504         0.898919         0.791413
 O         2.258032         2.181519         1.512531
 H         5.332562        -1.274136         1.547592
 H         5.255625         0.548280         1.439450
 H         4.398095        -0.511275         2.748115
 H         2.107203        -2.182608         0.031888
 H         1.750271        -1.510266         1.670970
 H        -0.528894        -0.508192         0.850928
 H        -0.437055         0.976437        -0.295404
 H        -0.489912        -0.853712        -0.822209
 H         4.117854         1.111405        -0.823579
 H         1.786429         2.711933         0.682691
