19
Iteration:  2001
 C         4.658174        -0.404233         1.632780
 C         3.310717        -0.127187         0.906183
 C         2.235775        -1.176880         0.747456
 C         1.368182        -0.104461         0.113869
 C        -0.072396         0.017922        -0.253411
 O         2.153719        -0.036540        -1.151730
 C         3.145796         0.634851        -0.422814
 C         2.346248         1.019526         0.733224
 O         2.392684         2.029000         1.681813
 H         5.229304        -1.180771         1.211564
 H         5.369262         0.448864         1.684195
 H         4.438632        -0.678104         2.659635
 H         2.507800        -2.108613         0.180315
 H         2.016001        -1.458926         1.812412
 H        -0.744686         0.070683         0.549634
 H        -0.161985         0.946727        -0.827700
 H        -0.443077        -0.638369        -0.980218
 H         4.087060         0.852714        -0.963403
 H         1.906464         2.808913         1.205369
