19
Iteration:  4074
 C         4.685367        -0.375018         1.606072
 C         3.438370        -0.276469         0.915661
 C         2.182081        -1.143635         0.837068
 C         1.376114        -0.084460         0.021705
 C        -0.109654        -0.015106        -0.218522
 O         2.194997         0.006184        -1.200316
 C         3.125868         0.595285        -0.435979
 C         2.409551         0.962768         0.823413
 O         2.290053         2.089515         1.640121
 H         5.166875        -1.234336         1.242414
 H         5.259589         0.623656         1.462927
 H         4.537716        -0.437946         2.659657
 H         2.254817        -2.187134         0.377746
 H         1.536742        -1.018279         1.768272
 H        -0.515504        -0.379439         0.761797
 H        -0.410003         0.966636        -0.623978
 H        -0.240196        -0.771988        -1.056493
 H         4.010739         1.173696        -0.836696
 H         2.205154         3.027085         1.111335
