19
Iteration:  4547charge 0 multiplicity 1
 C         4.675469        -0.286053         1.629673
 C         3.348449        -0.256947         0.881022
 C         2.201513        -1.282110         0.813596
 C         1.435823        -0.101080         0.013657
 C        -0.093589         0.002374        -0.176321
 O         2.107776         0.110729        -1.224910
 C         3.270129         0.549177        -0.455822
 C         2.488513         1.018090         0.733406
 O         2.263937         2.015856         1.715735
 H         5.428329        -0.989996         1.293336
 H         4.921411         0.835422         1.630216
 H         4.566093        -0.501524         2.666446
 H         2.193255        -2.129203         0.199355
 H         1.650460        -1.269662         1.753916
 H        -0.458436         0.226923         0.831654
 H        -0.314982         0.924097        -0.781943
 H        -0.619270        -0.948590        -0.504782
 H         4.208596         0.877497        -1.007443
 H         1.424524         2.484042         1.289600
