19
Iteration:  1091
 C         4.526928        -0.437626         1.812042
 C         3.317344        -0.266829         0.884329
 C         2.298704        -1.358407         0.616464
 C         1.396153        -0.066766         0.027869
 C        -0.099449         0.032022        -0.053156
 O         2.186275         0.153795        -1.240533
 C         3.185034         0.701759        -0.436225
 C         2.412308         0.911630         0.796825
 O         2.350970         2.105617         1.577685
 H         5.143705        -1.131796         1.154875
 H         5.399681         0.449527         1.741788
 H         4.403788        -0.747057         2.874021
 H         2.467152        -2.180725        -0.051867
 H         1.773403        -1.615944         1.608530
 H        -0.406191        -0.043211         0.949989
 H        -0.452376         1.019240        -0.422487
 H        -0.651728        -0.750971        -0.594177
 H         4.003952         1.163437        -0.926553
 H         2.138174         2.759388         0.985823
