19
Iteration:  1725
 C         4.621946        -0.408473         1.696818
 C         3.333785        -0.317573         0.914783
 C         2.219934        -1.263369         0.614622
 C         1.476112        -0.059032         0.011403
 C        -0.055328         0.078570         0.022582
 O         2.190102         0.165573        -1.253750
 C         3.278482         0.596671        -0.362280
 C         2.424875         0.902085         0.799666
 O         2.142926         2.052882         1.555339
 H         5.446089        -1.034315         1.222453
 H         4.979233         0.663822         1.594350
 H         4.476445        -0.704987         2.691795
 H         2.183323        -2.174812         0.061406
 H         1.811606        -1.513933         1.659657
 H        -0.296750        -0.080590         1.062750
 H        -0.357206         0.969937        -0.443156
 H        -0.510867        -0.776182        -0.447517
 H         3.967652         1.197548        -0.924387
 H         2.230300         2.869474         0.817898
