19
Iteration:  4112charge 0 multiplicity 1
 C         4.545863        -0.349705         1.747486
 C         3.346956        -0.201566         0.852734
 C         2.262046        -1.173340         0.718171
 C         1.415157        -0.036012         0.063652
 C        -0.089006        -0.037878        -0.081565
 O         2.139101         0.095874        -1.224117
 C         3.221409         0.543402        -0.438351
 C         2.484557         0.995608         0.756212
 O         2.288236         1.997213         1.563102
 H         5.181716        -1.249381         1.529717
 H         5.198004         0.435244         1.580323
 H         4.287933        -0.298330         2.842479
 H         2.451740        -2.104744         0.222388
 H         1.959002        -1.418097         1.732574
 H        -0.576560        -0.280553         0.843156
 H        -0.629194         0.835027        -0.441376
 H        -0.367292        -0.837140        -0.744694
 H         3.992649         0.935333        -1.065135
 H         2.279250         2.866824         1.146667
