19
Iteration:  3291charge 0 multiplicity 1
 C         4.525453        -0.387885         1.751772
 C         3.340202        -0.212480         0.816781
 C         2.197933        -1.132600         0.783844
 C         1.399520        -0.062916         0.023151
 C        -0.033021        -0.100885        -0.036557
 O         2.122844         0.129517        -1.209440
 C         3.287274         0.615356        -0.443321
 C         2.428094         0.948203         0.738274
 O         2.319487         2.013880         1.531255
 H         5.233950        -1.180454         1.300819
 H         4.947996         0.498864         2.104180
 H         4.112529        -0.814706         2.653761
 H         2.280574        -2.067451         0.175829
 H         1.998918        -1.252770         1.860737
 H        -0.460354        -0.518277         0.914036
 H        -0.479909         0.955040        -0.266887
 H        -0.114752        -0.775530        -0.904253
 H         4.041568         1.209792        -1.056547
 H         2.473577         2.909487         0.950993
