19
Iteration:   385
 C         4.596216        -0.512078         1.888908
 C         3.391387        -0.319640         0.869442
 C         2.218980        -1.247045         0.715912
 C         1.448513         0.024830         0.043839
 C        -0.023637         0.049152         0.091975
 O         2.192226         0.197318        -1.291810
 C         3.239552         0.610136        -0.512842
 C         2.473047         0.963531         0.733384
 O         2.100774         2.056657         1.391680
 H         5.291953        -1.276883         1.383250
 H         5.174142         0.311320         2.206721
 H         4.301154        -0.926156         2.906134
 H         2.181925        -2.231504         0.191967
 H         1.691234        -1.382895         1.604692
 H        -0.436420        -0.129620         1.104702
 H        -0.442205         0.980719        -0.219993
 H        -0.343633        -0.818431        -0.471868
 H         3.984749         1.123137        -1.116732
 H         2.634982         2.725733         1.323235
