19
Iteration:  4627charge 0 multiplicity 1
 C         4.657776        -0.487828         1.672352
 C         3.350097        -0.256028         0.908406
 C         2.189189        -1.184582         0.763057
 C         1.435419        -0.074322         0.024146
 C        -0.042020        -0.104579        -0.011422
 O         2.152979         0.195532        -1.163066
 C         3.285888         0.674002        -0.392835
 C         2.474444         1.009675         0.725444
 O         2.132030         2.057928         1.482825
 H         5.296288        -1.242598         1.079731
 H         5.382979         0.321839         1.685177
 H         4.443426        -0.640415         2.794724
 H         2.194377        -2.011732         0.021112
 H         1.711855        -1.702070         1.642373
 H        -0.513273        -0.286684         1.025589
 H        -0.529637         0.768861        -0.458405
 H        -0.325380        -0.945685        -0.715747
 H         4.017735         1.275008        -0.941017
 H         2.406144         2.758265         0.973921
