19
Iteration:  4728
 C         4.604611        -0.215036         1.569508
 C         3.305834        -0.246529         0.927318
 C         2.169131        -1.228385         0.816223
 C         1.413253        -0.093383         0.054635
 C        -0.078785        -0.010026        -0.130576
 O         2.197315         0.035146        -1.305879
 C         3.245496         0.645271        -0.502204
 C         2.452764         0.991459         0.795938
 O         2.279070         1.928324         1.732376
 H         5.337654        -1.038548         1.288282
 H         4.983683         0.803176         1.580490
 H         4.541497        -0.360131         2.713176
 H         2.327564        -2.115984         0.153367
 H         1.582012        -1.427410         1.707203
 H        -0.598156         0.014429         0.814325
 H        -0.486239         0.933186        -0.616800
 H        -0.472575        -0.834434        -0.759478
 H         4.162838         0.982699        -0.957353
 H         2.510293         2.758916         1.376365
