19
Iteration:  1963charge 0 multiplicity 1
 C         4.682025        -0.409158         1.635553
 C         3.344686        -0.319916         0.893065
 C         2.135350        -1.185185         0.786193
 C         1.371995        -0.048400         0.043621
 C        -0.066379        -0.047467        -0.080452
 O         2.194459         0.201456        -1.222439
 C         3.275375         0.624217        -0.360509
 C         2.391708         0.927005         0.824492
 O         2.237960         2.067959         1.486398
 H         5.413233        -1.041272         1.000792
 H         4.981221         0.610525         1.862244
 H         4.630537        -0.982135         2.611977
 H         2.097073        -2.088282         0.216832
 H         1.727338        -1.381429         1.759205
 H        -0.620131        -0.006597         0.937356
 H        -0.251327         0.848042        -0.709950
 H        -0.217731        -1.125670        -0.472112
 H         4.282944         0.819803        -0.780741
 H         2.275724         2.808488         0.938256
