19
Iteration:  1932
 C         4.582865        -0.481182         1.693301
 C         3.310783        -0.267948         0.951765
 C         2.211900        -1.227192         0.657305
 C         1.426978        -0.052335        -0.019656
 C        -0.048573        -0.016653         0.088255
 O         2.253074         0.096928        -1.301003
 C         3.252128         0.643568        -0.422630
 C         2.416850         0.958926         0.813098
 O         2.207371         2.177848         1.538847
 H         5.318098        -1.102355         1.111524
 H         5.153563         0.482610         1.860341
 H         4.435019        -0.933872         2.629831
 H         2.400320        -2.065841         0.000044
 H         1.706960        -1.624957         1.573031
 H        -0.350691        -0.057052         1.164679
 H        -0.563312         0.714476        -0.502363
 H        -0.563189        -0.876207        -0.437166
 H         4.220812         0.732293        -0.875554
 H         1.899892         2.915570         1.021974
