19
Iteration:  1414charge 0 multiplicity 1
 C         4.490778        -0.529853         1.775932
 C         3.361112        -0.182378         0.830980
 C         2.200110        -1.189767         0.639768
 C         1.390572        -0.031866         0.068494
 C        -0.028738        -0.096589        -0.052681
 O         2.193889         0.124598        -1.248916
 C         3.241986         0.691022        -0.478544
 C         2.405113         1.013716         0.794708
 O         2.349077         2.069794         1.622836
 H         4.935264        -1.502384         1.304091
 H         5.400052         0.131169         1.914790
 H         4.141787        -0.664394         2.895259
 H         2.408186        -1.961481        -0.153026
 H         1.936334        -1.556199         1.589590
 H        -0.527493        -0.346852         0.858361
 H        -0.461816         0.841546        -0.369337
 H        -0.380610        -0.857414        -0.724500
 H         4.085162         1.209885        -1.005459
 H         1.906964         2.771360         1.254603
