19
Iteration:  2483
 C         4.695611        -0.406834         1.655737
 C         3.379450        -0.299656         0.857375
 C         2.232907        -1.157528         0.850951
 C         1.436514        -0.055783         0.102414
 C        -0.083156         0.069193        -0.209106
 O         2.126262         0.058209        -1.158714
 C         3.239232         0.580124        -0.411832
 C         2.432578         0.933700         0.750583
 O         2.155720         2.057039         1.540415
 H         5.357213        -1.097038         1.176795
 H         5.156512         0.618191         1.666607
 H         4.359733        -0.658552         2.635437
 H         2.435112        -2.072263         0.159274
 H         1.755232        -1.325245         1.830288
 H        -0.680751        -0.079440         0.734438
 H        -0.452875         0.954910        -0.683758
 H        -0.314643        -0.811486        -0.700283
 H         3.865472         1.311731        -0.824289
 H         2.861917         2.612629         1.238253
