19
Iteration:  1208
 C         4.643734        -0.506499         1.729526
 C         3.384903        -0.224817         0.903323
 C         2.202317        -1.225973         0.707170
 C         1.431723         0.010672         0.083460
 C        -0.023236        -0.004578        -0.183109
 O         2.088024         0.219066        -1.212251
 C         3.216457         0.584156        -0.451140
 C         2.405379         0.944469         0.818307
 O         2.280527         1.996199         1.604970
 H         5.238950        -1.402415         1.525387
 H         5.257611         0.284906         1.549330
 H         4.175281        -0.311701         2.701732
 H         2.486805        -2.043042        -0.050661
 H         1.813174        -1.617411         1.654903
 H        -0.368277        -0.144056         0.869712
 H        -0.409435         0.935440        -0.647224
 H        -0.351729        -0.875022        -0.812257
 H         4.014843         1.132463        -0.935044
 H         1.967843         2.928894         1.065975
