19
Iteration:   418
 C         4.493451        -0.298258         1.729527
 C         3.265250        -0.293582         0.922183
 C         2.249465        -1.346725         0.636745
 C         1.412671        -0.085811         0.074024
 C        -0.085016         0.079261        -0.047656
 O         2.224885         0.067227        -1.226663
 C         3.222048         0.606705        -0.398645
 C         2.389551         0.947988         0.757184
 O         2.358752         2.102321         1.573490
 H         5.155127        -1.152854         1.300584
 H         5.078140         0.580692         1.637574
 H         4.261178        -0.718301         2.753790
 H         2.480259        -2.109725        -0.120321
 H         1.912018        -1.651542         1.566443
 H        -0.523196        -0.051514         0.957401
 H        -0.440644         0.958921        -0.543097
 H        -0.428261        -0.678510        -0.740765
 H         4.076053         1.075154        -0.915655
 H         2.580218         2.978355         0.969973
