19
Iteration:  1745charge 0 multiplicity 1
 C         4.575787        -0.417600         1.690083
 C         3.275621        -0.237849         0.918145
 C         2.152076        -1.254143         0.656737
 C         1.517335        -0.044936        -0.009456
 C        -0.101395        -0.042342         0.124714
 O         2.279388         0.172535        -1.254222
 C         3.288816         0.667172        -0.371479
 C         2.394304         0.962560         0.735250
 O         2.203733         2.047751         1.504628
 H         5.244432        -0.977352         0.925837
 H         5.180718         0.413535         1.993074
 H         4.315771        -1.139374         2.450772
 H         2.410190        -2.046505        -0.141588
 H         1.647279        -1.790772         1.558380
 H        -0.244923        -0.185017         1.234721
 H        -0.484008         0.855676        -0.343794
 H        -0.654676        -0.839986        -0.403780
 H         4.293608         0.873055        -0.610008
 H         2.189547         2.984593         0.891158
