19
Iteration:  4156charge 0 multiplicity 1
 C         4.526265        -0.360391         1.702413
 C         3.275685        -0.280702         0.909494
 C         2.281951        -1.246102         0.753871
 C         1.443198        -0.057849        -0.001157
 C        -0.045311         0.019572         0.005129
 O         2.157726         0.126287        -1.239117
 C         3.299023         0.642907        -0.390592
 C         2.387473         0.868098         0.723532
 O         2.304049         2.070311         1.492241
 H         5.290664        -1.091936         1.347497
 H         5.000739         0.509177         1.597310
 H         4.314095        -0.499284         2.783773
 H         2.481644        -2.062479         0.074770
 H         1.924456        -1.739641         1.655835
 H        -0.303861         0.146155         1.027700
 H        -0.448504         0.919429        -0.488721
 H        -0.566399        -0.858131        -0.336607
 H         4.279592         1.086634        -0.774129
 H         1.480968         2.677896         1.116387
