19
Iteration:  4110
 C         4.536930        -0.340160         1.733922
 C         3.343322        -0.183056         0.852223
 C         2.270508        -1.166925         0.726875
 C         1.422515        -0.044825         0.076214
 C        -0.091180        -0.039130        -0.093088
 O         2.142763         0.101833        -1.215883
 C         3.225088         0.543987        -0.447843
 C         2.486359         0.981829         0.751612
 O         2.286813         1.987474         1.565074
 H         5.132997        -1.231676         1.511506
 H         5.220853         0.378647         1.547088
 H         4.255867        -0.358840         2.827140
 H         2.432241        -2.134112         0.264793
 H         1.872007        -1.443519         1.764696
 H        -0.646715        -0.306701         0.829885
 H        -0.585017         0.891550        -0.408908
 H        -0.325264        -0.875280        -0.725775
 H         3.979067         0.916160        -1.049004
 H         2.327505         2.974355         1.142192
