19
Iteration:   901
 C         4.502562        -0.464875         1.751196
 C         3.373617        -0.228642         0.853128
 C         2.241472        -1.282534         0.637278
 C         1.440005        -0.046680         0.087135
 C        -0.044085        -0.040643         0.032362
 O         2.140513         0.196697        -1.286767
 C         3.300232         0.611793        -0.405230
 C         2.479500         0.941293         0.748308
 O         2.238759         2.133632         1.566886
 H         5.167415        -1.350766         1.403732
 H         5.175629         0.241760         2.138586
 H         3.938688        -0.900615         2.657219
 H         2.388727        -2.120078        -0.057334
 H         1.813640        -1.610748         1.559812
 H        -0.520371        -0.114543         1.029128
 H        -0.281561         0.898319        -0.426690
 H        -0.444844        -0.773477        -0.623948
 H         4.098988         0.942757        -1.029458
 H         1.936975         2.894238         0.906575
