19
Iteration:  4558charge 0 multiplicity 1
 C         4.662500        -0.282929         1.615855
 C         3.353505        -0.237516         0.883654
 C         2.146285        -1.242557         0.806400
 C         1.403904        -0.077157         0.017655
 C        -0.048916         0.023795        -0.148423
 O         2.146437         0.074273        -1.238126
 C         3.268556         0.583862        -0.465165
 C         2.441896         0.930502         0.823831
 O         2.263342         2.016958         1.670377
 H         5.389217        -0.889534         1.084688
 H         5.284655         0.691702         1.657490
 H         4.455305        -0.610359         2.597236
 H         2.437087        -2.150081         0.341292
 H         1.805389        -1.659247         1.746875
 H        -0.484139         0.302525         0.819968
 H        -0.354189         0.797972        -0.906976
 H        -0.604211        -0.911715        -0.500841
 H         4.165592         1.092394        -0.997073
 H         1.475694         2.756526         1.330242
