19
Iteration:  4487
 C         4.572880        -0.359746         1.701992
 C         3.374617        -0.159958         0.929889
 C         2.273195        -1.204188         0.711722
 C         1.409188        -0.120696         0.111693
 C        -0.085993        -0.085662        -0.083310
 O         2.122222         0.133561        -1.306089
 C         3.241489         0.582074        -0.446192
 C         2.383570         0.934252         0.766102
 O         2.297658         2.080649         1.615794
 H         5.117944        -1.298149         1.408066
 H         5.342395         0.423122         1.592048
 H         4.191458        -0.259992         2.770092
 H         2.316760        -2.135398         0.043035
 H         1.959414        -1.750372         1.619386
 H        -0.603622        -0.292589         0.881556
 H        -0.385593         0.929351        -0.293079
 H        -0.460780        -0.574598        -0.959994
 H         4.202477         1.004197        -0.759622
 H         2.430077         2.756216         0.932844
