19
Iteration:  3373charge 0 multiplicity 1
 C         4.693299        -0.396281         1.580845
 C         3.319719        -0.263159         0.962103
 C         2.139830        -1.269667         0.769495
 C         1.433197        -0.091050        -0.006671
 C         0.018557         0.054963        -0.116935
 O         2.195248         0.085899        -1.255806
 C         3.252569         0.580152        -0.399013
 C         2.425030         0.954687         0.833478
 O         2.199000         2.129105         1.606981
 H         5.375189        -1.177417         1.234211
 H         5.305851         0.623118         1.322922
 H         4.537612        -0.452460         2.723549
 H         2.120546        -2.362720         0.411197
 H         1.567412        -1.353320         1.745577
 H        -0.402143         0.252316         0.836291
 H        -0.121394         0.774468        -0.845278
 H        -0.586932        -0.801364        -0.398046
 H         4.096255         0.968563        -0.894945
 H         1.275462         2.513790         1.257962
