19
Iteration:   861
 C         4.675866        -0.386035         1.678177
 C         3.330977        -0.225306         0.939071
 C         2.112446        -1.242456         0.706541
 C         1.399905        -0.102151         0.015424
 C        -0.124431        -0.012869        -0.156028
 O         2.172945         0.160861        -1.258672
 C         3.230436         0.609085        -0.398823
 C         2.472957         0.979335         0.819590
 O         2.357214         2.038361         1.627180
 H         5.039086        -1.352857         1.489173
 H         5.501030         0.344684         1.450337
 H         4.443474        -0.327804         2.707558
 H         2.251487        -2.129619         0.054295
 H         1.562847        -1.492348         1.713376
 H        -0.663314        -0.191233         0.831505
 H        -0.446741         0.891843        -0.688468
 H        -0.460635        -0.861998        -0.830516
 H         4.169376         1.136254        -0.590707
 H         1.806985         2.623244         1.212317
