19
Iteration:   154charge 0 multiplicity 1
 C         4.767575        -0.514704         1.547220
 C         3.371533        -0.244276         0.988808
 C         2.138793        -1.165623         0.975180
 C         1.457914        -0.097337         0.012830
 C        -0.020376         0.096016        -0.188968
 O         2.171256         0.056944        -1.313367
 C         3.239407         0.553615        -0.388368
 C         2.433122         1.013898         0.773215
 O         2.142071         2.140219         1.576255
 H         5.196455        -1.377173         1.061558
 H         5.388616         0.354432         1.448763
 H         4.653539        -0.719748         2.604099
 H         2.274468        -2.280869         0.589412
 H         1.662879        -1.172380         1.968389
 H        -0.565470         0.227212         0.734592
 H        -0.264007         1.009220        -0.780187
 H        -0.462810        -0.774294        -0.694152
 H         4.129527         1.032425        -0.879082
 H         1.178825         2.112068         1.590155
