19
Iteration:  2749charge 0 multiplicity 1
 C         4.599775        -0.456114         1.684369
 C         3.337590        -0.250732         0.963062
 C         2.232336        -1.221786         0.737916
 C         1.430991        -0.082072         0.049577
 C        -0.050542         0.026376         0.041154
 O         2.244520         0.114835        -1.258121
 C         3.239416         0.623065        -0.386481
 C         2.419516         0.930545         0.765667
 O         2.137202         2.116523         1.457186
 H         5.305825        -0.963452         0.885255
 H         5.054517         0.503759         1.874384
 H         4.505032        -1.258472         2.483851
 H         2.353116        -2.104717        -0.008815
 H         1.554954        -1.413048         1.658644
 H        -0.451373         0.228601         0.990761
 H        -0.345005         0.750337        -0.702262
 H        -0.388803        -0.896070        -0.370643
 H         4.070397         1.106288        -0.841931
 H         2.579311         2.776482         1.074605
