19
Iteration:  2754
 C         4.604488        -0.445487         1.670013
 C         3.348575        -0.224086         0.958695
 C         2.245579        -1.236488         0.716595
 C         1.429584        -0.116882         0.035503
 C        -0.059580         0.032353         0.008320
 O         2.233122         0.121383        -1.231685
 C         3.230600         0.600695        -0.364443
 C         2.374635         0.960376         0.771830
 O         2.169510         2.099540         1.446854
 H         5.063485        -0.988279         0.896534
 H         5.024206         0.535353         2.027254
 H         4.520592        -1.077891         2.532980
 H         2.325227        -2.106764         0.126876
 H         1.692235        -1.730532         1.497292
 H        -0.398683         0.293289         1.072425
 H        -0.357127         0.905703        -0.624953
 H        -0.483755        -0.980684        -0.315862
 H         4.168173         1.143414        -0.749113
 H         2.771176         2.887440         1.024865
