19
Iteration:  3055charge 0 multiplicity 1
 C         4.661436        -0.324168         1.709937
 C         3.375279        -0.274363         0.800283
 C         2.082960        -1.144201         0.859824
 C         1.411480        -0.046103         0.053458
 C        -0.041245        -0.087699        -0.127897
 O         2.149593         0.042595        -1.278505
 C         3.197084         0.626715        -0.489599
 C         2.479678         0.965168         0.741637
 O         2.296157         2.021740         1.679221
 H         5.154074        -1.186267         1.515132
 H         5.284701         0.559771         1.505332
 H         4.521884        -0.324166         2.785150
 H         2.079141        -2.127257         0.431602
 H         1.579478        -1.061141         1.799987
 H        -0.745067        -0.515304         0.602560
 H        -0.498668         0.903502        -0.342662
 H        -0.062024        -0.634528        -1.175172
 H         4.030107         1.012177        -0.957005
 H         2.383384         3.013574         1.343692
