19
Iteration:  2275charge 0 multiplicity 1
 C         4.526050        -0.443512         1.695086
 C         3.357706        -0.205048         0.854708
 C         2.208866        -1.251126         0.749527
 C         1.489648        -0.037747         0.080900
 C        -0.085797         0.019928        -0.041786
 O         2.212148         0.044033        -1.212143
 C         3.262423         0.676963        -0.503250
 C         2.409005         0.977666         0.738779
 O         2.256054         2.047530         1.571738
 H         5.085518        -1.285317         1.451022
 H         5.365239         0.249763         1.727689
 H         4.181146        -0.482899         2.689332
 H         2.415672        -2.110804         0.192570
 H         1.836971        -1.480442         1.699046
 H        -0.639854        -0.169578         0.936632
 H        -0.594118         0.979905        -0.373483
 H        -0.462903        -0.790246        -0.700176
 H         4.117523         1.254396        -0.867599
 H         2.050776         2.783909         1.092649
