19
Iteration:   936
 C         4.625115        -0.454019         1.728911
 C         3.370010        -0.300547         0.893981
 C         2.171257        -1.221171         0.719558
 C         1.449163        -0.012371         0.024864
 C        -0.069341         0.028022         0.032464
 O         2.218814         0.077515        -1.316959
 C         3.294818         0.668260        -0.445650
 C         2.395626         1.020521         0.736779
 O         2.177738         2.026106         1.573936
 H         5.247852        -1.124045         1.151291
 H         5.140428         0.351979         2.254524
 H         4.196242        -1.164634         2.442894
 H         2.281823        -2.150849         0.151280
 H         1.660195        -1.419945         1.728931
 H        -0.561119         0.061061         1.045988
 H        -0.275468         0.983447        -0.410654
 H        -0.505754        -0.759629        -0.585848
 H         4.122593         1.252403        -0.958214
 H         2.367298         2.827950         1.262886
