19
Iteration:  3638charge 0 multiplicity 1
 C         4.672482        -0.462955         1.760224
 C         3.479886        -0.259314         0.847812
 C         2.155642        -1.154807         0.813542
 C         1.440801        -0.067557        -0.036979
 C        -0.111743        -0.060465         0.005207
 O         2.116768         0.118834        -1.274509
 C         3.248132         0.616115        -0.526201
 C         2.526190         0.986902         0.734742
 O         2.132364         2.093910         1.561829
 H         5.370318        -1.226404         1.419840
 H         5.181628         0.481722         1.871252
 H         4.173047        -0.825407         2.708228
 H         2.217242        -2.238749         0.482635
 H         1.500253        -1.122219         1.758076
 H        -0.325745        -0.290926         1.040198
 H        -0.609197         0.906791        -0.180265
 H        -0.412342        -0.885772        -0.757141
 H         4.108090         1.003129        -1.093897
 H         2.728616         2.881763         1.455491
