19
Iteration:  4626
 C         4.663965        -0.488915         1.676117
 C         3.341536        -0.256840         0.906050
 C         2.184322        -1.181119         0.762277
 C         1.437650        -0.069800         0.028843
 C        -0.038744        -0.105625        -0.015530
 O         2.143900         0.194878        -1.169762
 C         3.285339         0.669184        -0.383371
 C         2.478711         1.002390         0.722715
 O         2.130504         2.060255         1.481551
 H         5.297513        -1.218197         1.113125
 H         5.378770         0.329682         1.654197
 H         4.445481        -0.670031         2.765039
 H         2.235114        -1.971539         0.040149
 H         1.742485        -1.694395         1.643283
 H        -0.494322        -0.281580         1.023967
 H        -0.490687         0.774935        -0.468283
 H        -0.331821        -0.966087        -0.700894
 H         4.042353         1.293972        -0.949503
 H         2.404278         2.755638         1.018155
