19
Iteration:  3464
 C         4.656063        -0.305565         1.722606
 C         3.312206        -0.352725         0.922023
 C         2.168644        -1.312335         0.682074
 C         1.401220        -0.023551         0.066104
 C        -0.228776        -0.082472        -0.100377
 O         2.176868         0.201045        -1.209681
 C         3.312341         0.580281        -0.350241
 C         2.452462         0.913824         0.831435
 O         2.340554         2.121591         1.476386
 H         5.477568        -1.010420         1.400945
 H         4.962349         0.740167         1.661812
 H         4.395752        -0.358211         2.849882
 H         2.295442        -2.044067        -0.076755
 H         1.839794        -1.752724         1.626263
 H        -0.544760        -0.442552         0.856654
 H        -0.588594         0.922545        -0.364103
 H        -0.591174        -0.767555        -0.802743
 H         4.206876         0.960663        -0.892641
 H         2.238452         2.842131         0.683714
