19
Iteration:  3913charge 0 multiplicity 1
 C         4.665296        -0.342368         1.648101
 C         3.370446        -0.269965         0.885828
 C         2.168914        -1.252876         0.741515
 C         1.403583        -0.039771         0.072102
 C         0.021785        -0.041144        -0.203058
 O         2.113529         0.037276        -1.177176
 C         3.218685         0.550236        -0.406171
 C         2.391238         0.989786         0.777881
 O         2.287388         2.154668         1.612276
 H         5.229707        -1.356827         1.307315
 H         5.318643         0.491556         1.468085
 H         4.572132        -0.597433         2.806963
 H         2.331321        -2.088287         0.171956
 H         1.555033        -1.286403         1.673779
 H        -0.440097        -0.260450         0.803131
 H        -0.288331         0.942856        -0.575250
 H        -0.500113        -0.810827        -0.757858
 H         3.982197         1.220190        -0.868409
 H         1.805020         2.807651         1.307815
