19
Iteration:   541charge 0 multiplicity 1
 C         4.630942        -0.434155         1.733677
 C         3.300643        -0.304336         0.941644
 C         2.197612        -1.291896         0.646355
 C         1.448782        -0.008057         0.019162
 C         0.027770         0.032627        -0.022661
 O         2.092049         0.188659        -1.206559
 C         3.270496         0.573475        -0.305143
 C         2.441524         0.902531         0.836910
 O         2.225727         2.107677         1.396973
 H         5.129986        -1.387356         1.282529
 H         5.251500         0.555135         1.750242
 H         4.441119        -0.613065         2.837915
 H         2.236286        -1.867652        -0.262545
 H         1.801462        -1.853897         1.493357
 H        -0.387645         0.083572         0.955520
 H        -0.276521         0.998302        -0.536301
 H        -0.214715        -0.864082        -0.611336
 H         4.118226         1.196617        -0.493702
 H         1.858185         2.631526         0.828891
