19
Iteration:  4171
 C         4.636148        -0.370252         1.709183
 C         3.403005        -0.191174         0.914501
 C         2.212040        -1.278774         0.714376
 C         1.433971        -0.084848         0.026495
 C        -0.088989         0.071947        -0.028667
 O         2.152310         0.083506        -1.234690
 C         3.284689         0.548881        -0.427629
 C         2.432928         0.984263         0.754319
 O         2.184458         2.043443         1.557861
 H         5.225394        -1.166605         1.265850
 H         5.262970         0.651861         1.807418
 H         4.388467        -0.752594         2.685846
 H         2.463597        -2.182609         0.104140
 H         1.699898        -1.507070         1.639161
 H        -0.491894         0.207623         1.003539
 H        -0.353668         0.936567        -0.691194
 H        -0.444436        -0.936625        -0.406447
 H         4.071484         1.061618        -0.973875
 H         1.882005         2.755018         0.935488
