19
Iteration:   884charge 0 multiplicity 1
 C         4.571305        -0.502996         1.804103
 C         3.338804        -0.338079         0.891330
 C         2.207235        -1.254787         0.674118
 C         1.438258        -0.059588         0.011222
 C        -0.043423        -0.014114        -0.055039
 O         2.140276         0.219094        -1.198293
 C         3.251377         0.679929        -0.479280
 C         2.396248         0.937647         0.813243
 O         2.339542         2.094769         1.513144
 H         5.219220        -1.259985         1.470992
 H         5.111042         0.490690         1.555534
 H         4.402777        -0.555407         2.856668
 H         2.451859        -2.057974        -0.036322
 H         1.745384        -1.593179         1.695865
 H        -0.379241        -0.194956         0.988114
 H        -0.496949         0.900124        -0.519060
 H        -0.459784        -0.899202        -0.651001
 H         4.122151         1.303471        -0.858929
 H         1.551600         2.731564         1.034473
