19
Iteration:  4956charge 0 multiplicity 1
 C         4.581658        -0.349350         1.686538
 C         3.349580        -0.274491         0.881332
 C         2.207989        -1.281505         0.762374
 C         1.433531        -0.040654         0.038906
 C         0.011700        -0.016005        -0.009255
 O         2.186095         0.154931        -1.228325
 C         3.204714         0.711831        -0.451011
 C         2.385630         0.926197         0.754142
 O         2.254335         1.981676         1.548713
 H         5.289705        -1.106817         1.179712
 H         5.159022         0.568915         1.691723
 H         4.314876        -0.360964         2.793151
 H         2.127744        -2.148337         0.058807
 H         1.917405        -1.584653         1.845424
 H        -0.342148         0.350417         0.938591
 H        -0.509154         0.571011        -0.850364
 H        -0.330303        -1.061879        -0.274833
 H         4.108658         1.091755        -0.918271
 H         1.978748         2.642340         0.944826
