19
Iteration:  1187
 C         4.606730        -0.433960         1.647290
 C         3.362406        -0.271372         0.887386
 C         2.191340        -1.255223         0.722878
 C         1.438810        -0.104712         0.093996
 C        -0.093532         0.038435        -0.175660
 O         2.135301         0.088590        -1.219060
 C         3.271388         0.692673        -0.406787
 C         2.501832         0.978523         0.769975
 O         2.263775         2.082427         1.696280
 H         5.136606        -1.153329         0.970558
 H         5.307967         0.337699         1.614536
 H         4.330137        -0.808923         2.634482
 H         2.314849        -2.187352         0.107702
 H         1.722921        -1.365164         1.708067
 H        -0.775692         0.050917         0.684044
 H        -0.125586         1.018109        -0.715508
 H        -0.455302        -0.672933        -0.955292
 H         4.209928         0.980299        -0.852717
 H         1.463830         2.593523         1.200421
