19
Iteration:  3613
 C         4.553542        -0.419311         1.684256
 C         3.380799        -0.197404         0.890676
 C         2.279998        -1.234496         0.714249
 C         1.451885        -0.079568         0.131168
 C        -0.044344         0.024150         0.025834
 O         2.143407         0.062301        -1.200296
 C         3.220467         0.618390        -0.444583
 C         2.447719         0.991996         0.733116
 O         2.166919         2.050193         1.480292
 H         5.041147        -1.308933         1.344595
 H         5.316970         0.464198         1.542296
 H         4.166242        -0.642134         2.662014
 H         2.533321        -2.030687        -0.026571
 H         1.798053        -1.674795         1.587814
 H        -0.599140         0.135212         0.996363
 H        -0.114640         1.026292        -0.497946
 H        -0.379030        -0.827488        -0.797736
 H         4.053707         1.081544        -0.880718
 H         2.589622         2.790839         1.265556
