19
Iteration:   440charge 0 multiplicity 1
 C         4.658952        -0.272617         1.722880
 C         3.308541        -0.276786         0.981343
 C         2.116751        -1.215558         0.762962
 C         1.398895        -0.121697        -0.030136
 C        -0.097160        -0.007271        -0.211235
 O         2.080353         0.075670        -1.261954
 C         3.254851         0.640494        -0.368083
 C         2.411910         0.929274         0.812420
 O         2.453173         2.018945         1.605421
 H         5.418676        -1.065185         1.338096
 H         5.133715         0.647823         1.485008
 H         4.566542        -0.504227         2.835596
 H         2.357465        -2.060948         0.100575
 H         1.541606        -1.435001         1.606395
 H        -0.621808         0.007278         0.756461
 H        -0.220039         0.940257        -0.715100
 H        -0.558054        -0.631585        -0.960027
 H         4.162981         1.072253        -0.850862
 H         1.910222         2.659876         1.361385
