19
Iteration:   582charge 0 multiplicity 1
 C         4.484107        -0.482626         1.744912
 C         3.385141        -0.228432         0.857199
 C         2.210556        -1.248025         0.696394
 C         1.460526        -0.074759         0.034225
 C        -0.028973         0.028115         0.048073
 O         2.183836         0.081900        -1.296445
 C         3.286003         0.677869        -0.366883
 C         2.431137         0.983886         0.730407
 O         2.192651         2.069219         1.496028
 H         5.272668        -1.158456         1.276167
 H         5.041706         0.376272         2.026048
 H         4.149240        -1.026562         2.666448
 H         2.461816        -2.197114         0.197101
 H         1.848297        -1.399327         1.660810
 H        -0.287682        -0.169458         1.096761
 H        -0.424255         1.033172        -0.204844
 H        -0.606837        -0.689707        -0.556166
 H         4.147384         1.193651        -0.766782
 H         2.487369         3.007242         0.962027
