19
Iteration:  4131
 C         4.636181        -0.318024         1.815342
 C         3.377796        -0.283953         0.861902
 C         2.147449        -1.261084         0.671749
 C         1.435236        -0.080617         0.011976
 C        -0.090325        -0.045108        -0.008805
 O         2.150750         0.083828        -1.271604
 C         3.286022         0.640688        -0.476957
 C         2.428623         0.910554         0.735185
 O         2.306604         2.146892         1.586885
 H         5.276317        -1.194236         1.671149
 H         5.309946         0.506961         1.641315
 H         4.218807        -0.415137         2.845824
 H         2.173697        -2.142292        -0.003383
 H         1.482041        -1.719725         1.510070
 H        -0.513509        -0.110020         1.041030
 H        -0.436638         0.950666        -0.334841
 H        -0.484120        -0.937076        -0.474691
 H         4.078716         1.126508        -0.928134
 H         1.790380         2.755532         1.148680
