19
Iteration:  4821
 C         4.595649        -0.530155         1.643149
 C         3.383838        -0.189858         0.858269
 C         2.239513        -1.297407         0.716740
 C         1.415561        -0.068685         0.011158
 C        -0.095402        -0.108504        -0.020367
 O         2.218719         0.091399        -1.265510
 C         3.334839         0.685586        -0.430700
 C         2.365965         1.031351         0.754360
 O         2.150885         2.185815         1.643628
 H         5.091361        -1.374043         1.148024
 H         5.144738         0.470329         1.667078
 H         4.533999        -0.877634         2.687404
 H         2.534351        -2.279156         0.306872
 H         1.845552        -1.413327         1.800512
 H        -0.293423        -0.059490         1.095579
 H        -0.619919         0.740738        -0.348882
 H        -0.469914        -0.987707        -0.490623
 H         4.087696         1.280237        -0.839293
 H         2.207916         3.061365         1.019788
