19
Iteration:  2456charge 0 multiplicity 1
 C         4.637268        -0.367022         1.720180
 C         3.323817        -0.276700         0.890033
 C         2.145538        -1.219958         0.785201
 C         1.484166        -0.111293         0.082098
 C        -0.058613        -0.025082        -0.044360
 O         2.140692         0.135192        -1.282417
 C         3.278728         0.646265        -0.489619
 C         2.485179         0.940191         0.723169
 O         2.203279         2.088805         1.589626
 H         5.025795        -1.371959         1.442851
 H         5.305989         0.479789         1.570141
 H         4.250324        -0.263575         2.758926
 H         2.181733        -2.122426         0.218828
 H         1.514040        -1.257339         1.700780
 H        -0.587757        -0.470462         0.769277
 H        -0.472589         0.983007        -0.204216
 H        -0.336210        -0.820568        -0.790299
 H         4.295371         0.815865        -0.934191
 H         2.623782         2.670217         1.042070
