19
Iteration:   830charge 0 multiplicity 1
 C         4.631162        -0.344651         1.543655
 C         3.283623        -0.171026         0.802002
 C         2.114879        -1.160783         0.804779
 C         1.426948        -0.048042         0.088107
 C        -0.017422         0.030754        -0.263394
 O         2.163850         0.014155        -1.165766
 C         3.232135         0.585449        -0.424213
 C         2.473765         0.988737         0.780752
 O         2.245890         1.955066         1.769971
 H         5.099232        -1.294071         1.334848
 H         5.543858         0.381392         1.319276
 H         4.477969        -0.331133         2.628097
 H         2.168029        -2.130612         0.343076
 H         1.610352        -1.213959         1.807279
 H        -0.707636        -0.176086         0.574913
 H        -0.284860         0.918487        -0.870610
 H        -0.208081        -0.820740        -0.988075
 H         4.201638         0.895641        -0.834197
 H         2.655275         2.954031         1.537269
