19
Iteration:  3041charge 0 multiplicity 1
 C         4.678412        -0.265731         1.617017
 C         3.371275        -0.251424         0.931274
 C         2.167468        -1.176804         0.831345
 C         1.373512        -0.058143         0.042872
 C        -0.103494        -0.014840        -0.274357
 O         2.110493         0.080191        -1.207417
 C         3.238518         0.491525        -0.432419
 C         2.391025         0.968687         0.797273
 O         2.340017         2.010194         1.674133
 H         5.328322        -1.164546         1.536412
 H         5.377844         0.636268         1.314881
 H         4.435563        -0.081647         2.644692
 H         2.195799        -2.208866         0.368861
 H         1.782499        -1.375070         1.840955
 H        -0.563176        -0.488367         0.627279
 H        -0.417299         1.074453        -0.487450
 H        -0.371875        -0.682249        -1.123004
 H         4.068747         1.047410        -0.947775
 H         2.410299         2.732594         1.098849
