19
Iteration:  4647charge 0 multiplicity 1
 C         4.639752        -0.483711         1.688858
 C         3.330759        -0.227547         0.839240
 C         2.227027        -1.211637         0.700038
 C         1.417986        -0.071745         0.065875
 C        -0.095163        -0.091358        -0.027466
 O         2.211753         0.105540        -1.283506
 C         3.244766         0.687856        -0.369237
 C         2.414078         0.950878         0.812708
 O         2.198721         2.155651         1.561659
 H         5.233816        -1.274837         1.230302
 H         5.400452         0.274389         1.572862
 H         4.323875        -0.608478         2.718930
 H         2.449400        -2.118111         0.260219
 H         1.954680        -1.486297         1.756465
 H        -0.441225        -0.486110         0.981422
 H        -0.445674         0.917788        -0.166839
 H        -0.450864        -0.777984        -0.839252
 H         4.193489         1.161421        -0.824473
 H         1.919667         2.851532         0.829583
