19
Iteration:  1432
 C         4.471141        -0.479642         1.683847
 C         3.280009        -0.261785         0.862808
 C         2.243415        -1.230969         0.712078
 C         1.460988        -0.042188        -0.054083
 C        -0.119902        -0.113919        -0.042102
 O         2.205613         0.190221        -1.260490
 C         3.279045         0.678907        -0.377796
 C         2.477355         1.038418         0.715474
 O         2.341000         2.032328         1.674201
 H         4.759589        -1.458047         1.619937
 H         5.201420         0.355036         1.415856
 H         4.242699        -0.288699         2.711917
 H         2.294378        -2.181432         0.161889
 H         1.558302        -1.251687         1.645317
 H        -0.394359        -0.346470         1.033267
 H        -0.681215         0.792857        -0.281842
 H        -0.297182        -0.960912        -0.737610
 H         4.165735         1.159069        -0.859278
 H         2.165801         2.816983         1.157893
