19
Iteration:  1811
 C         4.629927        -0.384476         1.630298
 C         3.376034        -0.247809         0.896146
 C         2.230248        -1.186672         0.837665
 C         1.375343        -0.057376         0.031288
 C        -0.056471        -0.060276        -0.254776
 O         2.095158         0.130595        -1.212526
 C         3.167020         0.618339        -0.395041
 C         2.457013         0.956946         0.833354
 O         2.354129         2.030097         1.659087
 H         5.325647        -1.154838         1.142432
 H         5.224408         0.547586         1.720388
 H         4.383750        -0.688604         2.629834
 H         2.181389        -2.080910         0.128166
 H         1.737632        -1.453547         1.859130
 H        -0.732804        -0.109735         0.679341
 H        -0.308646         0.866655        -0.798284
 H        -0.324985        -0.809019        -1.046910
 H         3.984634         1.111904        -0.977787
 H         2.051567         2.795028         1.071722
