19
Iteration:  1922charge 0 multiplicity 1
 C         4.559293        -0.509001         1.738370
 C         3.349251        -0.206550         0.889525
 C         2.233157        -1.232614         0.682248
 C         1.489058        -0.130606         0.018939
 C        -0.057837        -0.001492         0.035252
 O         2.194927         0.085910        -1.271773
 C         3.243065         0.654870        -0.426287
 C         2.370225         1.007234         0.726884
 O         2.238021         2.141658         1.573259
 H         5.150275        -1.266203         1.179183
 H         5.141001         0.497125         1.860106
 H         4.371178        -0.861786         2.683597
 H         2.519636        -1.939315        -0.128903
 H         1.733702        -1.688327         1.618419
 H        -0.373517         0.118076         1.092868
 H        -0.293290         1.037590        -0.252846
 H        -0.489776        -0.950905        -0.362041
 H         4.184440         0.966965        -0.832973
 H         1.753710         2.726975         0.828682
