19
Iteration:  2519
 C         4.674706        -0.398635         1.502198
 C         3.336588        -0.257147         1.014963
 C         2.156591        -1.255896         0.808529
 C         1.413377        -0.108133         0.007115
 C        -0.034431         0.082822        -0.122576
 O         2.238527        -0.017339        -1.199260
 C         3.263862         0.590790        -0.379800
 C         2.380137         0.977079         0.768368
 O         2.133825         2.166822         1.587087
 H         5.435182        -0.962841         0.896378
 H         5.035830         0.544969         1.804416
 H         4.825420        -0.983819         2.519531
 H         2.368175        -2.149845         0.212370
 H         1.525919        -1.630788         1.615377
 H        -0.377274         0.264225         0.953400
 H        -0.276864         0.979914        -0.787521
 H        -0.587080        -0.859016        -0.546174
 H         4.157600         1.087334        -0.846737
 H         2.497301         3.005205         1.282613
