19
Iteration:  1661charge 0 multiplicity 1
 C         4.649079        -0.358203         1.564975
 C         3.314608        -0.195964         0.893348
 C         2.091218        -1.170257         0.800294
 C         1.409758        -0.092742         0.008472
 C        -0.060664        -0.012002        -0.207963
 O         2.264070         0.073535        -1.249433
 C         3.215208         0.603565        -0.482102
 C         2.418568         1.006575         0.749392
 O         2.317344         1.951624         1.800837
 H         5.131239        -1.358731         1.627361
 H         5.366773         0.487823         1.140944
 H         4.611863        -0.087254         2.612251
 H         2.044560        -2.104136         0.325645
 H         1.780802        -1.307197         1.868957
 H        -0.646778        -0.168745         0.719735
 H        -0.438581         0.970208        -0.512491
 H        -0.511920        -0.777872        -0.859701
 H         4.130184         0.947747        -0.921124
 H         1.641356         2.878416         1.751249
