19
Iteration:  2133charge 0 multiplicity 1
 C         4.686063        -0.446123         1.647923
 C         3.383522        -0.283125         0.940075
 C         2.104598        -1.177116         0.805746
 C         1.438558        -0.030319         0.086520
 C        -0.050918        -0.027474        -0.123811
 O         2.156168         0.164047        -1.264071
 C         3.286022         0.561841        -0.435139
 C         2.500627         0.980260         0.771762
 O         2.191786         2.074189         1.582526
 H         5.327763        -1.004754         0.998544
 H         5.203435         0.518742         1.906040
 H         4.514681        -1.044366         2.600781
 H         1.976129        -2.181412         0.364821
 H         1.573105        -1.222152         1.744843
 H        -0.456242         0.046602         0.889721
 H        -0.513584         0.828531        -0.677307
 H        -0.404190        -1.010108        -0.478508
 H         4.147253         0.906056        -1.050374
 H         1.744645         2.680162         0.782818
