19
Iteration:   704charge 0 multiplicity 1
 C         4.547285        -0.492712         1.776297
 C         3.369328        -0.271383         0.854442
 C         2.165559        -1.145329         0.723838
 C         1.458893        -0.049072         0.089789
 C        -0.024395        -0.043773        -0.089031
 O         2.186206         0.123198        -1.208057
 C         3.204789         0.686172        -0.534144
 C         2.498944         0.993840         0.733840
 O         2.224655         2.024820         1.599125
 H         5.141366        -1.366340         1.440971
 H         5.185267         0.279271         1.763896
 H         4.330000        -0.675555         2.829604
 H         2.299535        -2.119987         0.217318
 H         1.736919        -1.246061         1.706801
 H        -0.497567        -0.092453         0.879262
 H        -0.497861         0.894175        -0.481808
 H        -0.344045        -0.935334        -0.628532
 H         3.951773         1.192553        -1.192534
 H         2.335170         2.829899         1.038751
