19
Iteration:  3056
 C         4.651200        -0.326481         1.708613
 C         3.377067        -0.272044         0.797513
 C         2.082416        -1.145825         0.860057
 C         1.400474        -0.046060         0.055495
 C        -0.039325        -0.089504        -0.123747
 O         2.151568         0.040697        -1.276875
 C         3.206182         0.638905        -0.501071
 C         2.483720         0.973118         0.740266
 O         2.293948         2.022273         1.676406
 H         5.168509        -1.206924         1.505445
 H         5.257244         0.517054         1.541830
 H         4.544260        -0.327889         2.817638
 H         2.068001        -2.130340         0.456927
 H         1.563725        -1.080706         1.809461
 H        -0.712600        -0.526427         0.619575
 H        -0.475754         0.877679        -0.325438
 H        -0.062160        -0.631451        -1.158017
 H         4.063543         1.022941        -0.960525
 H         2.374783         2.948396         1.345825
