19
Iteration:  3052
 C         4.681617        -0.304838         1.705685
 C         3.371350        -0.278235         0.819667
 C         2.091155        -1.138569         0.853112
 C         1.440488        -0.046266         0.049486
 C        -0.053397        -0.079193        -0.152797
 O         2.143078         0.050163        -1.277461
 C         3.171679         0.586528        -0.457388
 C         2.463100         0.950009         0.745746
 O         2.304177         2.026603         1.683304
 H         5.215410        -1.262748         1.497172
 H         5.344669         0.635459         1.408337
 H         4.417141        -0.301636         2.741376
 H         2.106482        -2.154130         0.359839
 H         1.620880        -1.031891         1.835540
 H        -0.789862        -0.508060         0.559693
 H        -0.528039         0.949098        -0.388845
 H        -0.096865        -0.613677        -1.129253
 H         4.026374         1.028749        -0.998437
 H         2.395018         3.010676         1.352720
