19
Iteration:  2346
 C         4.657793        -0.350294         1.533703
 C         3.325229        -0.256041         0.921379
 C         2.082707        -1.165961         0.743479
 C         1.419793        -0.053054        -0.041893
 C        -0.051405         0.009696        -0.119438
 O         2.259539        -0.053064        -1.203964
 C         3.268366         0.611063        -0.324325
 C         2.361794         1.002232         0.786094
 O         2.247762         2.078209         1.678183
 H         5.481751        -0.862358         0.908064
 H         5.324587         0.496641         1.709729
 H         4.561918        -0.802672         2.594071
 H         2.106039        -2.168705         0.187288
 H         1.486432        -1.231781         1.725586
 H        -0.390831         0.208173         0.860905
 H        -0.408221         0.839648        -0.717416
 H        -0.482964        -0.964467        -0.459067
 H         4.009649         1.035514        -0.917547
 H         2.281767         2.731871         1.029897
