19
Iteration:  4223
 C         4.655690        -0.394639         1.565726
 C         3.351212        -0.179513         0.945600
 C         2.208197        -1.138057         0.882196
 C         1.410785        -0.113358         0.100765
 C        -0.083370         0.004092        -0.207734
 O         2.196317         0.085442        -1.220635
 C         3.300125         0.567343        -0.410713
 C         2.352965         0.951093         0.804587
 O         2.155172         2.052291         1.580611
 H         5.235382        -1.026835         0.824450
 H         5.140991         0.470545         1.463271
 H         4.717263        -0.863407         2.543420
 H         2.356885        -2.103600         0.353331
 H         1.738512        -1.421877         1.824680
 H        -0.512502         0.048492         0.754619
 H        -0.105552         1.003601        -0.588224
 H        -0.515174        -0.813956        -0.783736
 H         4.313111         0.711998        -0.929383
 H         2.509559         2.689458         1.110568
