19
Iteration:    90charge 0 multiplicity 1
 C         4.706595        -0.314796         1.743148
 C         3.351209        -0.226224         0.946623
 C         2.138455        -1.283327         0.695966
 C         1.426146        -0.081150        -0.017859
 C        -0.071388         0.052848        -0.057421
 O         2.089220         0.043779        -1.239578
 C         3.303521         0.458019        -0.480107
 C         2.476150         0.982704         0.736496
 O         2.158648         2.156516         1.616409
 H         5.406430        -1.172583         1.509106
 H         5.303699         0.545540         1.634401
 H         4.424019        -0.387832         2.804569
 H         2.258038        -1.969092        -0.024132
 H         1.709472        -1.602615         1.582132
 H        -0.522002         0.031851         0.918181
 H        -0.264994         1.029397        -0.539749
 H        -0.478904        -0.775027        -0.647046
 H         4.221285         0.561988        -1.092895
 H         2.856580         2.737213         1.514347
