19
Iteration:  4335
 C         4.574872        -0.261061         1.673620
 C         3.342153        -0.259708         0.888990
 C         2.166789        -1.222931         0.676445
 C         1.388831        -0.128918        -0.001164
 C        -0.073762        -0.017901        -0.068909
 O         2.196947         0.095511        -1.203174
 C         3.271211         0.574962        -0.433754
 C         2.409408         0.972143         0.739275
 O         2.337460         2.035565         1.635133
 H         5.214596        -1.169360         1.564411
 H         5.186696         0.727030         1.631872
 H         4.218467        -0.392313         2.721951
 H         2.448460        -2.146869         0.089571
 H         1.717327        -1.367220         1.665852
 H        -0.500774        -0.075493         1.008024
 H        -0.353437         0.987477        -0.456767
 H        -0.638439        -0.932127        -0.423631
 H         4.111352         0.934689        -1.035704
 H         1.954198         2.715392         1.118637
