19
Iteration:  2645
 C         4.615543        -0.252145         1.699168
 C         3.334209        -0.305844         0.941763
 C         2.146301        -1.340340         0.791022
 C         1.359286         0.019484         0.041753
 C        -0.112221        -0.012544        -0.179463
 O         2.144875         0.172780        -1.185771
 C         3.259022         0.563342        -0.444568
 C         2.462343         0.893270         0.766161
 O         2.328819         1.999094         1.579609
 H         5.348066        -1.014405         1.674681
 H         5.282176         0.669353         1.327091
 H         4.513711         0.167844         2.681286
 H         2.319004        -2.208184         0.128461
 H         1.584672        -1.427325         1.711727
 H        -0.702716        -0.348120         0.715300
 H        -0.468476         0.973327        -0.491527
 H        -0.280567        -0.862469        -0.930876
 H         4.174973         0.888522        -1.042068
 H         2.730277         2.883740         1.031101
