19
Iteration:   279
 C         4.608573        -0.320041         1.671794
 C         3.282485        -0.223872         0.905600
 C         2.138488        -1.207721         0.893036
 C         1.384816        -0.115815         0.037178
 C        -0.081034         0.015026        -0.181523
 O         2.186280         0.132701        -1.258455
 C         3.221341         0.580431        -0.461499
 C         2.467344         0.946275         0.732407
 O         2.385082         2.054954         1.553968
 H         5.136874        -1.172535         1.246159
 H         5.243388         0.533526         1.400978
 H         4.576772        -0.473205         2.744076
 H         2.326552        -2.211827         0.535903
 H         1.598960        -1.182621         1.878876
 H        -0.622564        -0.172918         0.772327
 H        -0.408307         0.926056        -0.680895
 H        -0.378377        -0.808941        -0.856001
 H         4.152016         0.890396        -0.911295
 H         1.831551         1.844290         2.460324
