19
Iteration:   811
 C         4.743545        -0.390352         1.631297
 C         3.340485        -0.279608         0.941917
 C         2.144092        -1.190099         0.914234
 C         1.419433         0.005656         0.086507
 C        -0.106881         0.060215        -0.262970
 O         2.197472         0.065164        -1.249968
 C         3.207082         0.652019        -0.488207
 C         2.420234         0.977170         0.723507
 O         2.205045         1.907285         1.716618
 H         5.453898        -1.209525         1.213426
 H         5.268377         0.556323         1.310185
 H         4.651258        -0.492069         2.766098
 H         1.977506        -2.204029         0.422241
 H         1.752060        -1.246325         1.894153
 H        -0.707440        -0.086035         0.578411
 H        -0.257341         0.979429        -0.880504
 H        -0.436437        -0.646622        -1.023378
 H         3.894075         1.208860        -1.175560
 H         2.801581         2.813133         1.373111
