19
Iteration:  3302
 C         4.456923        -0.378935         1.729897
 C         3.401021        -0.268182         0.800554
 C         2.233298        -1.232461         0.840584
 C         1.467458        -0.052629         0.099539
 C        -0.044626        -0.091709        -0.109910
 O         2.076960         0.156928        -1.200204
 C         3.277111         0.663004        -0.482748
 C         2.476833         0.969715         0.691190
 O         2.280479         2.053734         1.566346
 H         5.333192        -0.981754         1.261782
 H         4.940739         0.531813         1.890763
 H         4.158533        -0.878768         2.626177
 H         2.365665        -2.288091         0.520632
 H         1.740781        -1.306508         1.829737
 H        -0.582141        -0.393850         0.844002
 H        -0.483299         0.930986        -0.475981
 H        -0.458315        -0.829066        -0.813797
 H         4.262205         1.019393        -0.965297
 H         2.643779         2.783128         1.083627
