19
Iteration:  3547charge 0 multiplicity 1
 C         4.622641        -0.393414         1.596041
 C         3.306392        -0.275322         0.869670
 C         2.155229        -1.188009         0.875092
 C         1.463774         0.028733         0.073130
 C        -0.007351        -0.016060        -0.110695
 O         2.189231         0.046100        -1.204958
 C         3.264664         0.621864        -0.510103
 C         2.496393         1.045318         0.729148
 O         2.190265         1.994820         1.654013
 H         5.182175        -1.248166         1.242874
 H         5.322523         0.547461         1.506404
 H         4.585537        -0.560354         2.682783
 H         2.177647        -2.208330         0.371486
 H         1.512240        -1.169849         1.769966
 H        -0.701914         0.157067         0.758111
 H        -0.501754         0.713843        -0.790897
 H        -0.234831        -1.080106        -0.658396
 H         4.200451         0.844686        -1.107013
 H         1.627085         2.731717         1.268173
