19
Iteration:  1128charge 0 multiplicity 1
 C         4.627766        -0.400601         1.644554
 C         3.388246        -0.344795         0.845293
 C         2.188926        -1.260351         0.776673
 C         1.449270         0.012224         0.062476
 C        -0.048749         0.089052        -0.155316
 O         2.149114         0.157934        -1.206392
 C         3.294258         0.547356        -0.424342
 C         2.430907         0.947477         0.793825
 O         2.146154         2.049812         1.638687
 H         5.273238        -0.847416         0.952165
 H         4.931468         0.605561         1.916521
 H         4.700889        -1.111063         2.450231
 H         2.261145        -2.293931         0.276711
 H         1.673631        -1.485533         1.744960
 H        -0.545879         0.082555         0.881381
 H        -0.359182         1.002797        -0.692505
 H        -0.324187        -0.830848        -0.700473
 H         4.187001         0.923740        -1.000797
 H         2.363856         2.807447         1.232514
