19
Iteration:  3211
 C         4.744807        -0.391242         1.630969
 C         3.425242        -0.311600         0.852232
 C         2.160858        -1.169877         0.826507
 C         1.382637        -0.096475         0.080209
 C        -0.140152         0.010908        -0.217078
 O         2.201418         0.078996        -1.163528
 C         3.230375         0.644946        -0.477200
 C         2.480149         0.978837         0.795332
 O         2.136859         2.045474         1.631093
 H         5.280729        -1.266953         1.417689
 H         5.534149         0.312583         1.423431
 H         4.555049        -0.532521         2.734054
 H         2.223052        -2.136689         0.412007
 H         1.609114        -1.250058         1.777474
 H        -0.636564         0.015843         0.795132
 H        -0.261526         1.049759        -0.644458
 H        -0.637212        -0.801355        -0.916407
 H         4.120491         1.019709        -1.017289
 H         2.248554         2.869557         1.141160
