19
Iteration:  3266
 C         4.629942        -0.390047         1.800803
 C         3.297903        -0.303122         0.920737
 C         2.194564        -1.264765         0.677896
 C         1.362957        -0.101087        -0.023790
 C        -0.179176        -0.079417        -0.025545
 O         2.189478         0.045606        -1.273550
 C         3.272677         0.690532        -0.440652
 C         2.488056         1.016818         0.746984
 O         2.360457         2.203934         1.573536
 H         5.181800        -1.152618         1.363764
 H         5.173589         0.509714         1.753076
 H         4.452444        -0.761101         2.845437
 H         2.411951        -1.987494        -0.031168
 H         1.776926        -1.627226         1.605656
 H        -0.477888        -0.552362         0.933597
 H        -0.600150         0.955779         0.000355
 H        -0.475911        -0.670087        -0.959224
 H         4.128036         1.020296        -0.912180
 H         1.691044         2.710591         1.211870
