19
Iteration:  3309charge 0 multiplicity 1
 C         4.551638        -0.382666         1.732381
 C         3.377425        -0.259153         0.801323
 C         2.216715        -1.299035         0.844212
 C         1.449307        -0.078820         0.117004
 C        -0.084614        -0.077487        -0.130358
 O         2.116239         0.161884        -1.233329
 C         3.227939         0.633391        -0.530744
 C         2.487939         0.989640         0.743151
 O         2.266306         2.072062         1.582579
 H         5.403105        -0.919701         1.497121
 H         4.967402         0.673438         1.824198
 H         4.214723        -0.930690         2.675558
 H         2.293943        -2.278265         0.456240
 H         1.701111        -1.232928         1.795678
 H        -0.603324        -0.093421         0.826445
 H        -0.404261         0.889897        -0.515171
 H        -0.360335        -0.887937        -0.860223
 H         4.103915         0.967732        -0.973057
 H         2.702868         3.017795         1.249303
