19
Iteration:  4155charge 0 multiplicity 1
 C         4.525677        -0.356062         1.703840
 C         3.277299        -0.277948         0.914020
 C         2.275909        -1.249776         0.744166
 C         1.435078        -0.059343        -0.004699
 C        -0.047290         0.013810         0.007906
 O         2.164324         0.129591        -1.239500
 C         3.292555         0.645341        -0.393728
 C         2.391042         0.870705         0.723251
 O         2.311252         2.071626         1.492113
 H         5.283362        -1.101326         1.366792
 H         4.978435         0.500250         1.575553
 H         4.307699        -0.507778         2.796939
 H         2.461066        -2.083013         0.078907
 H         1.941271        -1.750928         1.690787
 H        -0.299018         0.142214         1.048590
 H        -0.394021         0.936748        -0.476957
 H        -0.533138        -0.869912        -0.326385
 H         4.250323         1.071279        -0.748634
 H         1.453017         2.662731         1.100878
