19
Iteration:  2959
 C         4.548498        -0.485979         1.744289
 C         3.408040        -0.217380         0.860133
 C         2.222231        -1.131063         0.840899
 C         1.436131        -0.004638         0.025215
 C         0.000654        -0.028823         0.059715
 O         2.183851         0.112236        -1.308948
 C         3.290451         0.623482        -0.496823
 C         2.494449         0.978613         0.671807
 O         2.081938         2.015204         1.542771
 H         5.297343        -1.202802         1.205783
 H         5.133119         0.327039         2.068339
 H         4.355823        -1.148695         2.715453
 H         2.094286        -2.081458         0.293841
 H         1.747802        -1.173342         1.853012
 H        -0.402543         0.173358         1.005450
 H        -0.414411         0.646645        -0.582899
 H        -0.258023        -0.998836        -0.325658
 H         4.037290         1.049420        -1.101521
 H         2.207111         2.822610         1.148085
