19
Iteration:  3404
 C         4.616838        -0.495055         1.653604
 C         3.440545        -0.136281         0.904248
 C         2.203494        -1.178454         0.809778
 C         1.408063        -0.022411         0.132885
 C        -0.112672         0.018646        -0.060989
 O         2.208276         0.049908        -1.255633
 C         3.310638         0.640736        -0.500396
 C         2.477783         1.002721         0.690940
 O         2.127193         1.992547         1.598784
 H         5.163014        -1.435324         1.501517
 H         5.422284         0.352011         1.652337
 H         4.252984        -0.608212         2.675108
 H         2.246561        -2.242981         0.300511
 H         2.081233        -1.280860         1.928111
 H        -0.803059         0.172969         0.788477
 H        -0.311606         0.961854        -0.580788
 H        -0.448559        -0.772996        -0.791386
 H         4.090331         1.008012        -1.054576
 H         1.663068         2.468202         1.020833
