19
Iteration:   188
 C         4.579566        -0.474415         1.740988
 C         3.367570        -0.273971         0.860963
 C         2.134775        -1.223000         0.675217
 C         1.407751        -0.015986         0.140102
 C        -0.056796        -0.004562        -0.027522
 O         2.211102         0.039321        -1.186693
 C         3.290555         0.644381        -0.352990
 C         2.416728         0.974653         0.724786
 O         2.264457         2.208240         1.350956
 H         5.292442        -1.207836         1.332372
 H         5.147692         0.393225         1.874616
 H         4.285181        -0.860108         2.712238
 H         2.298677        -1.948916        -0.182687
 H         1.749744        -1.653328         1.609039
 H        -0.496177        -0.234729         0.939800
 H        -0.450099         0.926772        -0.456487
 H        -0.315497        -0.855035        -0.672963
 H         4.063062         1.293910        -0.828013
 H         1.994863         1.929578         2.385131
