19
Iteration:  3742
 C         4.634190        -0.391316         1.649336
 C         3.367370        -0.255702         0.911616
 C         2.104756        -1.245674         0.800972
 C         1.407385        -0.058246         0.045134
 C        -0.056946        -0.050250        -0.051016
 O         2.196449         0.087935        -1.244704
 C         3.250690         0.642845        -0.505318
 C         2.539512         1.020035         0.690016
 O         2.257158         2.083371         1.638514
 H         5.166250        -1.322620         1.392349
 H         5.364595         0.521505         1.631023
 H         4.378356        -0.369119         2.700250
 H         2.165955        -2.256248         0.322420
 H         1.593653        -1.252563         1.777943
 H        -0.655207        -0.071778         0.918437
 H        -0.350713         0.788211        -0.700283
 H        -0.538617        -0.841368        -0.615289
 H         4.109780         0.847837        -1.046072
 H         1.411555         2.537908         1.319702
