19
Iteration:   703charge 0 multiplicity 1
 C         4.554829        -0.490566         1.777343
 C         3.370162        -0.271572         0.854774
 C         2.170184        -1.144641         0.727651
 C         1.448210        -0.044478         0.081624
 C        -0.027925        -0.039834        -0.085973
 O         2.182932         0.115150        -1.213420
 C         3.211674         0.683665        -0.523367
 C         2.488269         1.001523         0.735049
 O         2.227965         2.019138         1.605863
 H         5.139186        -1.370872         1.447301
 H         5.202972         0.294551         1.725734
 H         4.332243        -0.683474         2.832199
 H         2.322696        -2.148234         0.198262
 H         1.735716        -1.251684         1.698499
 H        -0.517827        -0.106650         0.862448
 H        -0.491051         0.894738        -0.525853
 H        -0.325116        -0.932067        -0.648794
 H         3.934144         1.182228        -1.202772
 H         2.366562         2.904676         1.021022
