19
Iteration:   368
 C         4.571252        -0.611586         1.767185
 C         3.361880        -0.278908         1.055844
 C         2.215755        -1.186356         0.826906
 C         1.509126        -0.068557         0.020878
 C        -0.000989         0.069824         0.084418
 O         2.105772         0.214562        -1.310970
 C         3.332382         0.728485        -0.552048
 C         2.552116         0.920082         0.691799
 O         1.996074         2.035554         1.357962
 H         5.227568        -1.321906         1.335203
 H         5.160603         0.382295         1.940538
 H         4.275829        -1.063178         2.697658
 H         2.503969        -2.131877         0.317400
 H         1.698231        -1.368222         1.869307
 H        -0.335817        -0.046102         1.121247
 H        -0.402515         1.022473        -0.374388
 H        -0.459860        -0.762150        -0.519317
 H         4.365217         1.036031        -0.846459
 H         2.685947         2.640486         1.443277
