19
Iteration:  4649charge 0 multiplicity 1
 C         4.634776        -0.481196         1.687171
 C         3.325162        -0.240701         0.830543
 C         2.235111        -1.186259         0.713334
 C         1.407284        -0.087894         0.047823
 C        -0.078671        -0.090970        -0.028955
 O         2.199468         0.095918        -1.295654
 C         3.248406         0.678553        -0.356156
 C         2.415001         0.974396         0.814893
 O         2.206819         2.153781         1.572665
 H         5.276454        -1.290425         1.182234
 H         5.409713         0.262086         1.599229
 H         4.319046        -0.550961         2.788626
 H         2.467657        -2.131377         0.206622
 H         1.993433        -1.552925         1.763823
 H        -0.450769        -0.476183         0.994209
 H        -0.434883         0.942344        -0.158918
 H        -0.455059        -0.733339        -0.869141
 H         4.119689         1.169930        -0.745473
 H         1.865079         2.839376         0.792407
