19
Iteration:  1330
 C         4.721184        -0.398813         1.552646
 C         3.235417        -0.228284         0.967615
 C         2.182053        -1.219136         0.742898
 C         1.405299        -0.050921         0.035901
 C        -0.123878         0.134938        -0.133846
 O         2.265000         0.019163        -1.254551
 C         3.314146         0.637365        -0.414869
 C         2.386004         0.980910         0.763392
 O         2.182481         1.971723         1.748858
 H         5.461622        -0.936624         0.894504
 H         5.085456         0.577580         1.670581
 H         4.635018        -0.838168         2.513518
 H         2.356707        -2.158442         0.162311
 H         1.541276        -1.450353         1.685679
 H        -0.675270         0.083318         0.819020
 H        -0.309098         1.074161        -0.784824
 H        -0.362211        -0.708759        -0.864578
 H         4.305839         0.669266        -0.906273
 H         2.213652         2.817555         1.237089
