19
Iteration:  4350charge 0 multiplicity 1
 C         4.659501        -0.292426         1.748974
 C         3.320550        -0.252012         0.919598
 C         2.162427        -1.264952         0.761762
 C         1.451154        -0.053549        -0.013174
 C        -0.048755         0.007100        -0.073341
 O         2.110900         0.075551        -1.310532
 C         3.213118         0.597978        -0.430058
 C         2.428286         0.893852         0.780335
 O         2.318347         2.025247         1.619538
 H         5.285177        -0.918719         1.206106
 H         5.103723         0.738187         1.520000
 H         4.693502        -0.257697         2.812759
 H         2.236351        -2.096883         0.094695
 H         1.642118        -1.586361         1.706017
 H        -0.373078         0.273581         0.934009
 H        -0.399099         0.813823        -0.804383
 H        -0.416859        -0.794323        -0.730253
 H         4.159746         1.067196        -0.783133
 H         1.823712         2.768416         1.263363
