19
Iteration:  2760
 C         4.611826        -0.421191         1.659606
 C         3.309198        -0.204078         0.951971
 C         2.228303        -1.272635         0.691749
 C         1.434796        -0.123334         0.023337
 C        -0.068763         0.027422        -0.027314
 O         2.204737         0.115757        -1.204138
 C         3.253122         0.603200        -0.339250
 C         2.341663         0.958011         0.769050
 O         2.208523         2.118880         1.449131
 H         5.296499        -1.072230         0.941479
 H         5.124993         0.451148         2.033238
 H         4.460444        -0.914914         2.687280
 H         2.543774        -2.164239        -0.027904
 H         1.885766        -1.853780         1.621003
 H        -0.293648         0.249598         0.977386
 H        -0.370538         0.913274        -0.543309
 H        -0.681432        -0.821536        -0.239674
 H         4.142705         1.111715        -0.665450
 H         2.807752         2.801108         1.033563
