19
Iteration:  4069
 C         4.709018        -0.347530         1.584380
 C         3.379908        -0.258599         0.917179
 C         2.182629        -1.121154         0.835977
 C         1.372321        -0.062686         0.034589
 C        -0.127316        -0.033791        -0.218558
 O         2.189104         0.006384        -1.188417
 C         3.214429         0.591440        -0.407740
 C         2.407455         0.918450         0.822910
 O         2.290820         2.100222         1.631575
 H         5.232437        -1.274089         1.111391
 H         5.352335         0.553336         1.499704
 H         4.570133        -0.471009         2.707871
 H         2.265279        -2.087547         0.381294
 H         1.548266        -1.247962         1.690451
 H        -0.729638        -0.250906         0.658459
 H        -0.502730         0.916771        -0.621221
 H        -0.351355        -0.685688        -1.054519
 H         4.029225         1.110380        -0.826151
 H         2.106950         2.754289         1.036254
