19
Iteration:   416charge 0 multiplicity 1
 C         4.474580        -0.315255         1.733963
 C         3.272418        -0.305898         0.898490
 C         2.267651        -1.341210         0.624122
 C         1.414004        -0.076661         0.066554
 C        -0.086398         0.072651        -0.027466
 O         2.208217         0.052250        -1.231302
 C         3.258081         0.617361        -0.385367
 C         2.393712         0.961400         0.774467
 O         2.338974         2.108459         1.563627
 H         5.179777        -1.141785         1.313914
 H         5.088141         0.609202         1.630753
 H         4.258844        -0.726471         2.773855
 H         2.465021        -2.103353        -0.094892
 H         1.887388        -1.621903         1.574308
 H        -0.549118        -0.041560         0.979127
 H        -0.422629         0.973648        -0.541454
 H        -0.459212        -0.676601        -0.751490
 H         4.089254         1.060731        -0.905193
 H         2.636316         3.005579         0.981332
