19
Iteration:  1723charge 0 multiplicity 1
 C         4.628365        -0.397983         1.706175
 C         3.345987        -0.333958         0.911908
 C         2.223791        -1.274087         0.621940
 C         1.495530        -0.054812         0.018557
 C        -0.062459         0.087506         0.015617
 O         2.178851         0.163074        -1.259769
 C         3.268844         0.595116        -0.373818
 C         2.420167         0.910886         0.800549
 O         2.142442         2.057431         1.556744
 H         5.436439        -1.031995         1.202668
 H         5.010463         0.596130         1.574027
 H         4.480477        -0.679502         2.738488
 H         2.156753        -2.227674         0.029495
 H         1.860464        -1.499252         1.688380
 H        -0.334316        -0.064250         1.079357
 H        -0.368889         0.978585        -0.509229
 H        -0.526449        -0.758778        -0.515666
 H         3.957280         1.217006        -0.876544
 H         2.200582         2.808007         0.917809
