19
Iteration:  3313charge 0 multiplicity 1
 C         4.626559        -0.367335         1.738371
 C         3.358963        -0.267794         0.816797
 C         2.199530        -1.290204         0.833777
 C         1.406385        -0.102595         0.094152
 C        -0.090922        -0.064691        -0.129441
 O         2.142593         0.153643        -1.253565
 C         3.189179         0.603851        -0.530410
 C         2.491907         0.992207         0.773236
 O         2.265342         2.093393         1.591441
 H         5.518109        -1.023791         1.469020
 H         4.882723         0.610036         1.966996
 H         4.269654        -0.747161         2.681295
 H         2.224960        -2.265254         0.311743
 H         1.774002        -1.253067         1.842653
 H        -0.642488        -0.023415         0.855531
 H        -0.346005         0.974078        -0.636123
 H        -0.262192        -0.906116        -0.818950
 H         4.102184         1.040582        -1.104750
 H         2.628414         2.859538         1.356711
