19
Iteration:  3754
 C         4.639924        -0.423374         1.768947
 C         3.318409        -0.193945         0.883513
 C         2.174636        -1.193728         0.827573
 C         1.465426         0.016053        -0.021058
 C        -0.125440        -0.027087        -0.045382
 O         2.156502         0.026595        -1.287459
 C         3.301904         0.628355        -0.593944
 C         2.477622         1.067411         0.708599
 O         2.235854         2.002935         1.663737
 H         5.139086        -1.344639         1.454197
 H         5.464888         0.416520         1.536138
 H         4.448595        -0.601187         2.805022
 H         2.247548        -2.103883         0.191674
 H         1.801368        -1.485564         1.798488
 H        -0.352178        -0.036401         1.063962
 H        -0.664290         0.850698        -0.423531
 H        -0.389042        -1.015195        -0.447191
 H         4.242839         0.832605        -1.077511
 H         1.613198         2.793149         1.226400
