19
Iteration:  1476
 C         4.638066        -0.328371         1.644877
 C         3.336654        -0.308847         0.875205
 C         2.164329        -1.298042         0.706992
 C         1.391345        -0.017991         0.073154
 C        -0.089445         0.089355        -0.262662
 O         2.138720         0.116931        -1.136980
 C         3.243945         0.651314        -0.419238
 C         2.436093         0.889516         0.797300
 O         2.299900         1.970528         1.696061
 H         5.046142        -1.256396         1.684999
 H         5.193038         0.467307         1.061870
 H         4.592639         0.032273         2.645773
 H         2.573320        -2.185695         0.160594
 H         1.940942        -1.666388         1.782973
 H        -0.685647         0.211913         0.691624
 H        -0.200891         1.027624        -0.817597
 H        -0.206643        -0.816121        -0.908424
 H         4.183178         0.981185        -0.948521
 H         1.948473         2.935384         1.214617
