19
Iteration:  1580charge 0 multiplicity 1
 C         4.545487        -0.529462         1.735855
 C         3.358114        -0.216385         0.983378
 C         2.278796        -1.223172         0.626541
 C         1.408763        -0.141427         0.061397
 C        -0.139867        -0.026910        -0.007796
 O         2.184426         0.147963        -1.251721
 C         3.251291         0.719428        -0.399026
 C         2.347695         0.913634         0.781334
 O         2.356934         2.121641         1.506202
 H         5.422336        -0.843430         1.049386
 H         4.964168         0.400036         2.106463
 H         4.268607        -1.159410         2.622894
 H         2.452756        -1.949537        -0.211098
 H         1.858256        -1.634580         1.535750
 H        -0.641507        -0.133888         0.934748
 H        -0.326091         0.864212        -0.588708
 H        -0.561324        -0.797071        -0.647970
 H         4.090603         1.358170        -0.807301
 H         2.068468         2.894858         1.046840
