19
Iteration:  4043charge 0 multiplicity 1
 C         4.665594        -0.362423         1.566143
 C         3.279374        -0.280724         0.984693
 C         2.175391        -1.285090         0.797143
 C         1.415759        -0.082248         0.122909
 C         0.006796         0.001033        -0.177348
 O         2.189060         0.112256        -1.134711
 C         3.220506         0.545802        -0.389784
 C         2.437536         0.995384         0.694671
 O         2.255554         2.154692         1.557561
 H         5.255867        -1.034611         0.928312
 H         5.155690         0.573941         1.503749
 H         4.733385        -0.613100         2.647694
 H         2.249781        -2.235751         0.218838
 H         1.518730        -1.721242         1.672243
 H        -0.644695        -0.103256         0.746860
 H        -0.478261         0.866361        -0.642370
 H        -0.267825        -0.815200        -0.875085
 H         4.190583         0.831547        -0.887652
 H         1.623232         2.863525         1.239543
