19
Iteration:   208
 C         4.548294        -0.458958         1.853042
 C         3.369505        -0.273612         0.924153
 C         2.248198        -1.281872         0.723725
 C         1.418733        -0.163588        -0.080516
 C        -0.125325        -0.041043        -0.010756
 O         2.166041         0.227059        -1.302900
 C         3.182780         0.626729        -0.408995
 C         2.390437         0.893783         0.861826
 O         2.361953         2.224340         1.329829
 H         5.331900        -1.133281         1.507474
 H         5.054833         0.514442         1.984204
 H         4.185850        -0.840346         2.817513
 H         2.490740        -2.335647         0.179243
 H         1.772154        -1.277481         1.723248
 H        -0.428807        -0.280979         1.008006
 H        -0.395865         1.020313        -0.208504
 H        -0.725558        -0.699940        -0.658447
 H         4.001849         1.155890        -0.962196
 H         2.731747         2.305563         2.299704
