19
Iteration:  3021charge 0 multiplicity 1
 C         4.628933        -0.192375         1.585388
 C         3.279459        -0.285161         0.991204
 C         2.184393        -1.340729         0.774519
 C         1.416133        -0.129433         0.086302
 C        -0.158844         0.061082        -0.233964
 O         2.185019         0.058329        -1.142569
 C         3.209383         0.609332        -0.369237
 C         2.406814         0.973495         0.789632
 O         2.403607         2.047986         1.604720
 H         5.064391        -1.054176         1.264340
 H         5.293437         0.550965         1.022815
 H         4.650063        -0.096102         2.613238
 H         2.432409        -2.192425         0.130786
 H         1.782326        -1.717707         1.686056
 H        -0.965716        -0.155444         0.508581
 H        -0.158686         1.054072        -0.807633
 H        -0.383806        -0.722543        -1.085197
 H         4.146711         0.822923        -0.879993
 H         1.985912         2.712492         1.172391
