19
Iteration:   730charge 0 multiplicity 1
 C         4.530162        -0.535345         1.815645
 C         3.358253        -0.286302         0.826723
 C         2.237223        -1.230579         0.713331
 C         1.495262        -0.063705         0.005431
 C        -0.025975         0.006189         0.084368
 O         2.134182         0.233997        -1.316988
 C         3.312388         0.630938        -0.388260
 C         2.409223         0.971341         0.713082
 O         2.238675         2.083515         1.478974
 H         5.241368        -1.269553         1.435537
 H         5.200342         0.387347         2.158962
 H         4.209854        -0.921646         2.794533
 H         2.535497        -2.134455         0.281582
 H         1.750445        -1.392321         1.717647
 H        -0.532963        -0.108289         1.093173
 H        -0.536735         0.887493        -0.249499
 H        -0.317013        -0.873460        -0.519979
 H         4.075878         1.080366        -0.981170
 H         1.471559         2.621177         0.913821
