19
Iteration:   611
 C         4.602738        -0.425922         1.710848
 C         3.388162        -0.208213         0.868564
 C         2.172794        -1.201803         0.795213
 C         1.378276        -0.044679         0.040821
 C        -0.088427         0.043744        -0.181080
 O         2.153322         0.009577        -1.227062
 C         3.284392         0.636691        -0.484922
 C         2.506143         1.037213         0.712220
 O         2.236047         2.009599         1.665698
 H         5.217543        -1.143873         1.225077
 H         5.225558         0.469394         2.031295
 H         4.345590        -0.863885         2.670233
 H         2.337863        -2.205641         0.276835
 H         1.734797        -1.393821         1.858499
 H        -0.424417        -0.095453         0.887879
 H        -0.523244         1.012090        -0.343636
 H        -0.441742        -0.775500        -0.832127
 H         4.145448         0.946059        -1.106218
 H         2.082185         2.957861         1.263375
