19
Iteration:  4272
 C         4.596601        -0.404485         1.686569
 C         3.335165        -0.282942         0.928580
 C         2.258713        -1.202335         0.760847
 C         1.417920        -0.095455         0.081059
 C        -0.151381        -0.073756        -0.091827
 O         2.161537         0.165905        -1.229311
 C         3.219153         0.627410        -0.409131
 C         2.444620         0.972023         0.753903
 O         2.330807         2.097670         1.506172
 H         5.190256        -1.268435         1.564001
 H         5.355844         0.487504         1.484350
 H         4.124111        -0.500343         2.656676
 H         2.496670        -2.176488         0.335343
 H         1.817471        -1.561403         1.724989
 H        -0.734494        -0.480757         0.816518
 H        -0.336619         0.996534        -0.375124
 H        -0.281593        -0.805294        -0.929757
 H         4.162591         1.021071        -0.799532
 H         1.739883         2.849363         1.062463
