19
Iteration:  2820charge 0 multiplicity 1
 C         4.577225        -0.332935         1.699895
 C         3.351222        -0.227459         0.832494
 C         2.156833        -1.151692         0.855224
 C         1.407517        -0.047493         0.056264
 C        -0.101661        -0.048920        -0.182862
 O         2.162198         0.088984        -1.260993
 C         3.254318         0.575379        -0.525476
 C         2.491326         1.016623         0.728119
 O         2.351850         1.962995         1.685648
 H         4.992418        -1.412927         1.672790
 H         5.274573         0.553068         1.325712
 H         4.405481        -0.195895         2.771417
 H         2.290589        -2.201753         0.548706
 H         1.769235        -1.020719         1.903048
 H        -0.574368        -0.438651         0.829720
 H        -0.572782         1.004638        -0.300465
 H        -0.368466        -0.744683        -1.053046
 H         4.163978         0.957931        -0.997622
 H         1.618414         2.523388         1.429132
