19
Iteration:  2139
 C         4.697541        -0.446465         1.641699
 C         3.340309        -0.347955         0.918320
 C         2.103478        -1.120614         0.838145
 C         1.478299        -0.001221        -0.000541
 C        -0.055467        -0.029397        -0.085096
 O         2.180142         0.151833        -1.262450
 C         3.237113         0.520064        -0.419843
 C         2.496038         0.972868         0.770982
 O         2.183396         2.087133         1.596210
 H         5.422046        -0.899906         0.881849
 H         5.116616         0.593068         1.752885
 H         4.479530        -0.987895         2.514404
 H         2.062284        -2.162682         0.435565
 H         1.673367        -1.261379         1.873012
 H        -0.475677         0.111470         0.930828
 H        -0.528888         0.695563        -0.768796
 H        -0.232697        -0.982056        -0.680990
 H         4.174311         0.929458        -0.825129
 H         1.784368         2.835462         1.075256
