19
Iteration:  4199charge 0 multiplicity 1
 C         4.686349        -0.420181         1.619527
 C         3.439938        -0.260778         0.861627
 C         2.158973        -1.218224         0.872053
 C         1.449239        -0.057200         0.076568
 C        -0.048954         0.072949        -0.152880
 O         2.177974        -0.004285        -1.218086
 C         3.209561         0.663233        -0.435350
 C         2.441987         1.012616         0.751942
 O         2.101143         2.029860         1.598314
 H         5.485442        -1.061985         1.131029
 H         5.073716         0.530226         1.653725
 H         4.493969        -0.840274         2.657949
 H         2.240557        -2.227400         0.425041
 H         1.584093        -1.391790         1.826019
 H        -0.542358         0.156324         0.778500
 H        -0.226965         0.913853        -0.799784
 H        -0.246830        -0.891990        -0.530608
 H         4.044067         1.211696        -1.025576
 H         2.435566         2.938632         1.171255
