19
Iteration:  4102
 C         4.533568        -0.315178         1.677325
 C         3.376932        -0.177987         0.879150
 C         2.233435        -1.202279         0.822545
 C         1.421439        -0.081075         0.104541
 C        -0.093161        -0.064207        -0.106188
 O         2.134939         0.105943        -1.194298
 C         3.277729         0.601153        -0.525974
 C         2.432667         0.947798         0.702506
 O         2.280916         2.014200         1.609165
 H         4.901818        -1.361731         1.393731
 H         5.332074         0.432819         1.564296
 H         4.191287        -0.482663         2.732506
 H         2.370353        -2.107338         0.245750
 H         1.662968        -1.357402         1.696042
 H        -0.653815        -0.317742         0.755327
 H        -0.260289         0.956546        -0.448585
 H        -0.243831        -0.834191        -0.864846
 H         4.188605         1.004944        -0.977493
 H         2.522450         2.906165         1.112640
