19
Iteration:  1427charge 0 multiplicity 1
 C         4.457740        -0.488381         1.677899
 C         3.304754        -0.199064         0.862681
 C         2.215366        -1.200589         0.712863
 C         1.462381        -0.048960         0.003618
 C        -0.110988        -0.123942        -0.033723
 O         2.214731         0.165370        -1.258502
 C         3.284614         0.697609        -0.431454
 C         2.466570         0.991975         0.722156
 O         2.349966         2.046863         1.680047
 H         4.779769        -1.642137         1.631874
 H         5.141085         0.290305         1.508091
 H         4.053390        -0.473812         2.753625
 H         2.362652        -2.059384         0.033992
 H         1.621835        -1.501491         1.581921
 H        -0.363717        -0.332890         0.985533
 H        -0.589235         0.851937        -0.312011
 H        -0.276872        -0.920822        -0.776323
 H         4.088642         1.231823        -0.859942
 H         2.048933         2.882345         1.031638
