19
Iteration:  3459
 C         4.624815        -0.314628         1.730261
 C         3.353676        -0.335594         0.921579
 C         2.168662        -1.305273         0.705336
 C         1.403064        -0.026148         0.087831
 C        -0.245569        -0.086076        -0.090226
 O         2.220409         0.199197        -1.223621
 C         3.270455         0.601088        -0.358187
 C         2.467580         0.898964         0.777725
 O         2.323807         2.124116         1.485611
 H         5.256319        -1.090297         1.334548
 H         4.995998         0.770233         1.709494
 H         4.525991        -0.343314         2.791856
 H         2.385582        -2.073288        -0.144721
 H         1.725340        -1.773029         1.621742
 H        -0.572295        -0.332829         0.961235
 H        -0.559772         0.953129        -0.243930
 H        -0.598384        -0.817179        -0.908276
 H         4.148261         0.940123        -0.892127
 H         2.334443         2.668417         0.779736
