19
Iteration:  4710charge 0 multiplicity 1
 C         4.683909        -0.222247         1.664825
 C         3.378960        -0.255577         0.785883
 C         2.138411        -1.229704         0.759123
 C         1.382279        -0.065180         0.006647
 C        -0.033763        -0.013067        -0.160376
 O         2.126583         0.106047        -1.170715
 C         3.262918         0.519971        -0.453755
 C         2.378925         0.949394         0.740060
 O         2.260999         1.983441         1.734797
 H         5.329770        -1.038934         1.437732
 H         5.209717         0.810446         1.518665
 H         4.509548        -0.482569         2.674841
 H         2.241940        -2.310771         0.392218
 H         1.855332        -1.167052         1.811771
 H        -0.528961        -0.301538         0.758228
 H        -0.267421         0.987552        -0.484803
 H        -0.379617        -0.724516        -0.898966
 H         4.139522         1.058348        -1.066486
 H         2.242971         2.788601         1.217868
