19
Iteration:  2799
 C         4.654638        -0.319949         1.723369
 C         3.364302        -0.264708         0.873258
 C         2.143555        -1.254148         0.738504
 C         1.370754        -0.052276         0.113824
 C        -0.040646        -0.013330        -0.137651
 O         2.111692         0.138494        -1.208432
 C         3.261032         0.596795        -0.436725
 C         2.432997         0.930204         0.783623
 O         2.332400         2.019259         1.546656
 H         5.054051        -1.311826         1.649600
 H         5.213509         0.680952         1.529830
 H         4.290564        -0.244446         2.733112
 H         2.222506        -2.122503         0.088378
 H         1.822100        -1.657394         1.715946
 H        -0.563577        -0.136100         0.886972
 H        -0.278707         1.044040        -0.504786
 H        -0.246868        -0.832945        -0.899994
 H         4.092887         1.095844        -0.893428
 H         1.908992         2.747241         0.877515
