19
Iteration:  3403charge 0 multiplicity 1
 C         4.621663        -0.489009         1.657596
 C         3.444496        -0.137856         0.906353
 C         2.202771        -1.177179         0.814884
 C         1.400562        -0.012213         0.133528
 C        -0.108320         0.017009        -0.064359
 O         2.204726         0.050827        -1.253588
 C         3.315667         0.643173        -0.496920
 C         2.475089         1.000332         0.691399
 O         2.129636         1.984457         1.591465
 H         5.192555        -1.431418         1.496056
 H         5.400104         0.311626         1.618622
 H         4.281142        -0.618276         2.647916
 H         2.233243        -2.220584         0.304714
 H         2.058486        -1.311752         1.922769
 H        -0.821115         0.175070         0.805769
 H        -0.318928         0.987809        -0.620105
 H        -0.478359        -0.787460        -0.786909
 H         4.110908         1.019139        -1.031598
 H         1.629525         2.441275         1.018743
