19
Iteration:     7
 C         4.631807        -0.368736         1.721884
 C         3.333400        -0.207399         0.933183
 C         2.186045        -1.199594         0.764734
 C         1.401144        -0.018091         0.105188
 C        -0.057246        -0.015811        -0.079599
 O         2.150051         0.038302        -1.189731
 C         3.208507         0.567243        -0.438608
 C         2.469744         0.983363         0.714305
 O         2.294859         2.135976         1.401061
 H         5.145669        -1.230335         1.268496
 H         5.358966         0.485703         1.783517
 H         4.367620        -0.701119         2.741842
 H         2.183728        -2.107641         0.103031
 H         1.587628        -1.665677         1.601155
 H        -0.600571        -0.124548         0.885743
 H        -0.392930         0.923299        -0.551949
 H        -0.397025        -0.788996        -0.799029
 H         4.133876         0.992458        -0.861962
 H         2.273190         1.806708         2.277176
