19
Iteration:    27
 C         4.537649        -0.432623         1.905782
 C         3.322572        -0.195889         0.975914
 C         2.222085        -1.152724         0.674595
 C         1.409036        -0.008428         0.072095
 C        -0.084420        -0.043214         0.035357
 O         2.070561         0.032359        -1.259068
 C         3.266198         0.564229        -0.619515
 C         2.510872         1.009056         0.675313
 O         2.306955         2.154674         1.466909
 H         5.369844        -1.130494         1.485123
 H         4.990255         0.569241         2.013196
 H         4.279064        -0.786586         2.948386
 H         2.569830        -2.068441        -0.139061
 H         1.873200        -1.805776         1.536488
 H        -0.523389        -0.412541         0.962652
 H        -0.615185         0.841580        -0.351901
 H        -0.281693        -0.801566        -0.751781
 H         4.088373         0.814403        -1.312465
 H         2.853419         2.174314         2.131196
