19
Iteration:  3755
 C         4.637514        -0.427976         1.772652
 C         3.320244        -0.187409         0.881718
 C         2.179977        -1.182570         0.826135
 C         1.464006         0.014948        -0.021608
 C        -0.128734        -0.023043        -0.041042
 O         2.155268         0.025370        -1.287780
 C         3.300970         0.621258        -0.591962
 C         2.471535         1.058246         0.706820
 O         2.233471         2.001282         1.663035
 H         5.121631        -1.338779         1.444349
 H         5.457731         0.423085         1.538311
 H         4.446921        -0.594197         2.816049
 H         2.270241        -2.076693         0.195385
 H         1.812725        -1.482015         1.767892
 H        -0.317513        -0.013141         1.036350
 H        -0.670618         0.849493        -0.397624
 H        -0.354415        -1.039778        -0.456096
 H         4.265869         0.852109        -1.094234
 H         1.659912         2.774442         1.240276
