19
Iteration:   738
 C         4.560554        -0.531961         1.831780
 C         3.390049        -0.254353         0.919290
 C         2.269403        -1.203543         0.616540
 C         1.422935        -0.053597         0.020359
 C        -0.064350         0.017407         0.085040
 O         2.194075         0.225311        -1.276548
 C         3.272740         0.521671        -0.429608
 C         2.403046         0.928798         0.705334
 O         2.231409         2.121627         1.465310
 H         5.293010        -1.160730         1.307352
 H         5.032211         0.368931         1.969862
 H         4.260044        -0.955556         2.790341
 H         2.543341        -2.148716         0.109981
 H         1.756870        -1.444447         1.574627
 H        -0.258661        -0.176493         1.159262
 H        -0.445094         0.974460        -0.329470
 H        -0.594024        -0.771003        -0.462240
 H         4.076736         1.189223        -0.804848
 H         1.339155         2.745537         1.161932
