19
Iteration:  4989
 C         4.694802        -0.425152         1.696103
 C         3.391445        -0.187428         0.901900
 C         2.332242        -1.284772         0.715506
 C         1.409219        -0.080656        -0.016472
 C        -0.166705        -0.004112        -0.117510
 O         2.131819         0.085282        -1.209726
 C         3.193196         0.603121        -0.388384
 C         2.379568         0.972116         0.842457
 O         2.252586         2.167855         1.583993
 H         5.262428        -1.373796         1.388216
 H         5.223947         0.484049         1.601182
 H         4.547630        -0.795280         2.727928
 H         2.472831        -1.936747        -0.188117
 H         2.202895        -1.972915         1.607635
 H        -0.503964         0.280020         0.866330
 H        -0.551717         0.753555        -0.868649
 H        -0.515751        -1.067436        -0.258061
 H         3.982194         0.909265        -0.999422
 H         1.780723         2.819283         1.027108
