19
Iteration:   357charge 0 multiplicity 1
 C         4.647485        -0.595355         1.697031
 C         3.330328        -0.232396         1.040092
 C         2.208938        -1.187792         0.830212
 C         1.494222        -0.100742         0.006561
 C         0.056670         0.072789         0.006236
 O         2.194848         0.184205        -1.237215
 C         3.236392         0.663540        -0.509605
 C         2.491966         0.964968         0.736160
 O         1.981952         2.069800         1.360840
 H         5.076637        -1.412774         1.184824
 H         5.436565         0.140463         2.107377
 H         4.317393        -0.983275         2.653141
 H         2.326246        -2.099512         0.233878
 H         1.538675        -1.506560         1.727688
 H        -0.154419         0.099355         1.090031
 H        -0.191944         1.129284        -0.293358
 H        -0.611349        -0.719426        -0.398800
 H         4.117158         0.912344        -1.157724
 H         2.574362         2.622883         1.673122
