19
Iteration:  2227charge 0 multiplicity 1
 C         4.553159        -0.317177         1.758594
 C         3.358729        -0.342657         0.938525
 C         2.179224        -1.225148         0.717390
 C         1.397791        -0.013475         0.032757
 C        -0.109680        -0.011210        -0.074824
 O         2.170414         0.156003        -1.202953
 C         3.251119         0.643994        -0.500237
 C         2.468535         0.888281         0.747061
 O         2.345575         2.025923         1.540778
 H         5.204063        -1.232402         1.637781
 H         5.401646         0.384430         1.466411
 H         4.365219        -0.102859         2.798984
 H         2.033449        -2.150790         0.031909
 H         1.796518        -1.563740         1.761329
 H        -0.516341        -0.390189         0.842158
 H        -0.677902         0.893471        -0.312581
 H        -0.376002        -0.791525        -0.851959
 H         4.217930         1.092853        -0.795327
 H         1.971312         2.739676         1.074724
