19
Iteration:    60
 C         4.429293        -0.359759         1.804848
 C         3.379039        -0.277376         0.767757
 C         2.182531        -1.228155         0.793879
 C         1.406699        -0.123060         0.068884
 C        -0.035772        -0.032142         0.105684
 O         2.214064         0.164642        -1.261726
 C         3.284227         0.699486        -0.455659
 C         2.350925         0.875768         0.712055
 O         2.321341         2.053115         1.361242
 H         5.325038        -1.083371         1.604500
 H         4.861411         0.661884         1.917814
 H         3.978043        -0.580047         2.826392
 H         2.068273        -2.355053         0.228929
 H         1.905578        -1.213000         1.897716
 H        -0.537473        -0.232263         1.059010
 H        -0.351456         0.957480        -0.252245
 H        -0.351689        -0.761902        -0.663517
 H         4.001861         1.475816        -0.818028
 H         3.426798         2.249085         1.512400
