19
Iteration:  4316charge 0 multiplicity 1
 C         4.463457        -0.343979         1.761741
 C         3.368872        -0.209842         0.788167
 C         2.260790        -1.271231         0.754127
 C         1.423561         0.004061         0.084834
 C        -0.125486        -0.057479        -0.023734
 O         2.193960         0.054463        -1.259933
 C         3.287200         0.647648        -0.513323
 C         2.419073         1.009226         0.728849
 O         2.319925         2.013616         1.602847
 H         5.059764        -1.192024         1.626414
 H         5.208875         0.512708         1.506521
 H         4.154144        -0.422309         2.770129
 H         2.239877        -2.121182         0.090707
 H         1.863791        -1.568715         1.762392
 H        -0.639155        -0.399236         0.931962
 H        -0.511653         0.966777        -0.325398
 H        -0.447091        -0.939705        -0.642659
 H         4.221865         1.207116        -0.822136
 H         2.319687         2.786145         1.134751
