19
Iteration:  4819
 C         4.592285        -0.550443         1.657777
 C         3.391191        -0.197100         0.859862
 C         2.259831        -1.262828         0.722209
 C         1.420794        -0.085887         0.003074
 C        -0.112391        -0.108766        -0.009995
 O         2.225440         0.102058        -1.269607
 C         3.303379         0.672604        -0.433169
 C         2.380477         1.042206         0.776347
 O         2.149026         2.183153         1.631227
 H         5.091381        -1.298139         1.067432
 H         5.176314         0.446921         1.675987
 H         4.477159        -0.805006         2.711438
 H         2.517922        -2.278796         0.284439
 H         1.855190        -1.391753         1.712475
 H        -0.281028        -0.015233         1.058085
 H        -0.593646         0.729687        -0.394233
 H        -0.465249        -0.987795        -0.477575
 H         4.091619         1.266109        -0.916766
 H         2.167907         2.917826         1.068751
