19
Iteration:   591charge 0 multiplicity 1
 C         4.519092        -0.496422         1.720755
 C         3.334636        -0.210239         0.870147
 C         2.244256        -1.113775         0.706719
 C         1.435664        -0.077899         0.062821
 C         0.029523         0.019542         0.058558
 O         2.199702         0.034501        -1.314961
 C         3.296234         0.639741        -0.443346
 C         2.337684         0.941304         0.715584
 O         2.208405         2.057331         1.583840
 H         5.191918        -1.171189         1.267316
 H         4.918565         0.375784         2.066015
 H         4.142537        -0.929320         2.639621
 H         2.310876        -2.118888         0.198790
 H         1.668596        -1.222636         1.636898
 H        -0.500303        -0.096719         1.019138
 H        -0.157713         1.037343        -0.259215
 H        -0.208844        -0.702691        -0.725087
 H         4.069984         1.264798        -0.906866
 H         2.526433         2.923497         0.953612
