19
Iteration:  1877charge 0 multiplicity 1
 C         4.655495        -0.323879         1.732866
 C         3.412829        -0.296710         0.851117
 C         2.136677        -1.242522         0.760098
 C         1.426671        -0.110167         0.073964
 C        -0.056959         0.022153        -0.146172
 O         2.101027         0.144100        -1.247258
 C         3.252475         0.590957        -0.503589
 C         2.483743         0.978776         0.721375
 O         2.253229         1.976750         1.657291
 H         5.155039        -1.346737         1.799617
 H         5.397041         0.488163         1.544834
 H         4.321589        -0.098658         2.709375
 H         2.256183        -2.173027         0.174937
 H         1.848750        -1.370153         1.855333
 H        -0.677351         0.019208         0.811003
 H        -0.280796         1.077214        -0.356871
 H        -0.524934        -0.702958        -0.892588
 H         4.024761         1.225126        -1.032401
 H         1.940019         2.777869         1.438427
