19
Iteration:   737
 C         4.556962        -0.530910         1.832572
 C         3.384975        -0.259483         0.905116
 C         2.265528        -1.200991         0.627617
 C         1.434308        -0.056352         0.021831
 C        -0.059273         0.016649         0.087708
 O         2.187369         0.229516        -1.282555
 C         3.274960         0.527677        -0.420005
 C         2.401185         0.932946         0.701416
 O         2.231713         2.118533         1.466388
 H         5.299461        -1.173307         1.314586
 H         5.040297         0.334628         1.992117
 H         4.263363        -0.947338         2.802232
 H         2.575889        -2.184875         0.129774
 H         1.762530        -1.423297         1.573514
 H        -0.291007        -0.172951         1.136824
 H        -0.472798         0.978262        -0.327851
 H        -0.560249        -0.786900        -0.465972
 H         4.078027         1.189550        -0.838704
 H         1.358837         2.728867         1.148928
