19
Iteration:  4701charge 0 multiplicity 1
 C         4.675228        -0.277494         1.634299
 C         3.394530        -0.293674         0.836017
 C         2.188864        -1.205906         0.782435
 C         1.416015        -0.062184         0.084110
 C        -0.074658        -0.015157        -0.176155
 O         2.135339         0.111600        -1.191697
 C         3.264055         0.551296        -0.496199
 C         2.393520         0.971524         0.797681
 O         2.265539         1.967555         1.669358
 H         5.426181        -1.036947         1.480091
 H         5.153102         0.720906         1.695182
 H         4.352864        -0.279447         2.656919
 H         2.307273        -2.176824         0.321780
 H         1.596222        -1.299723         1.743005
 H        -0.669636        -0.257155         0.758313
 H        -0.442769         0.965206        -0.384424
 H        -0.339174        -0.641356        -1.041336
 H         3.976027         1.223357        -1.098645
 H         1.996230         2.746495         1.174651
