19
Iteration:  3280charge 0 multiplicity 1
 C         4.578685        -0.416625         1.791265
 C         3.407762        -0.169323         0.887670
 C         2.154228        -1.168407         0.687346
 C         1.422157        -0.014403         0.064817
 C        -0.080408        -0.112676        -0.027856
 O         2.192866         0.074544        -1.273130
 C         3.204319         0.593348        -0.469587
 C         2.384314         0.963794         0.748458
 O         2.363035         2.074533         1.552623
 H         5.425690        -1.125581         1.461233
 H         5.121622         0.466587         1.926229
 H         4.204365        -0.809017         2.732171
 H         2.242363        -2.110654         0.091374
 H         1.640534        -1.425499         1.642858
 H        -0.486744        -0.611836         0.894529
 H        -0.622804         0.912143        -0.129492
 H        -0.473242        -0.706851        -0.866637
 H         4.011976         1.235819        -0.906904
 H         2.054107         2.942496         0.985101
