19
Iteration:   207
 C         4.552726        -0.463550         1.850151
 C         3.375416        -0.278108         0.922789
 C         2.243578        -1.285227         0.720419
 C         1.420763        -0.155211        -0.078138
 C        -0.125019        -0.040225        -0.007614
 O         2.169581         0.216229        -1.304878
 C         3.184096         0.632394        -0.412348
 C         2.384352         0.900558         0.867433
 O         2.356683         2.223802         1.326993
 H         5.329147        -1.140393         1.499386
 H         5.071499         0.547977         1.982823
 H         4.177403        -0.847854         2.818000
 H         2.467063        -2.320523         0.166785
 H         1.784379        -1.271289         1.728999
 H        -0.459019        -0.265260         1.011488
 H        -0.403108         1.020908        -0.209061
 H        -0.710095        -0.710536        -0.662007
 H         4.019344         1.161087        -0.916245
 H         2.730495         2.325354         2.343949
