19
Iteration:   816charge 0 multiplicity 1
 C         4.708912        -0.375812         1.602952
 C         3.402397        -0.267001         0.934754
 C         2.071854        -1.150851         0.919089
 C         1.376603        -0.013057         0.101125
 C        -0.061537         0.037207        -0.289688
 O         2.188276         0.041476        -1.251516
 C         3.247029         0.652576        -0.513620
 C         2.414498         0.984374         0.737607
 O         2.224701         1.923638         1.740191
 H         5.209472        -1.234153         1.217326
 H         5.231183         0.517623         1.291990
 H         4.629270        -0.426533         2.659502
 H         2.114977        -2.087269         0.302156
 H         1.759921        -1.428219         2.006544
 H        -0.723555        -0.034051         0.655442
 H        -0.213735         1.011190        -0.753547
 H        -0.294333        -0.768718        -1.019550
 H         3.939207         1.243720        -1.088297
 H         2.677217         2.609475         1.501265
