19
Iteration:  4064
 C         4.727905        -0.344578         1.576674
 C         3.316108        -0.213293         0.917089
 C         2.155742        -1.138678         0.833274
 C         1.382092        -0.047754         0.051589
 C        -0.133787        -0.044890        -0.221119
 O         2.177616         0.018821        -1.183412
 C         3.291483         0.585305        -0.369801
 C         2.408377         0.915422         0.814050
 O         2.296349         2.086078         1.623432
 H         5.267787        -1.148868         1.136287
 H         5.422736         0.500463         1.456743
 H         4.636895        -0.549193         2.638682
 H         2.290629        -2.119037         0.292462
 H         1.649060        -1.454470         1.816574
 H        -0.895236        -0.191923         0.586328
 H        -0.500336         0.941621        -0.566353
 H        -0.456529        -0.735104        -1.034120
 H         4.140446         1.081845        -0.909933
 H         1.947136         2.716616         0.823214
