19
Iteration:  2958charge 0 multiplicity 1
 C         4.557213        -0.494598         1.746687
 C         3.402358        -0.214466         0.864189
 C         2.220125        -1.135665         0.828662
 C         1.437761        -0.003593         0.018519
 C         0.014534        -0.023875         0.065278
 O         2.179659         0.107672        -1.306918
 C         3.288273         0.621299        -0.494987
 C         2.488264         0.978150         0.671895
 O         2.079913         2.023210         1.542796
 H         5.302978        -1.163282         1.213144
 H         5.171870         0.344899         2.082818
 H         4.300352        -1.153124         2.713293
 H         2.064385        -2.077979         0.310538
 H         1.761146        -1.131447         1.818462
 H        -0.387409         0.132726         1.033881
 H        -0.420309         0.647398        -0.613181
 H        -0.265883        -1.031132        -0.306665
 H         4.062040         1.072209        -1.118025
 H         2.211119         2.801941         1.172485
