19
Iteration:  1873charge 0 multiplicity 1
 C         4.653638        -0.295311         1.707813
 C         3.401697        -0.297617         0.867729
 C         2.124263        -1.252022         0.770573
 C         1.466872        -0.089721         0.035784
 C        -0.073856         0.023418        -0.142506
 O         2.115421         0.145001        -1.236875
 C         3.258121         0.572453        -0.492774
 C         2.445286         0.970219         0.728006
 O         2.273234         1.961853         1.674861
 H         5.087388        -1.300070         1.721420
 H         5.344741         0.454294         1.414492
 H         4.374388        -0.063153         2.815168
 H         2.200371        -2.156913         0.203268
 H         1.815284        -1.381220         1.749649
 H        -0.700948        -0.052200         0.774422
 H        -0.251930         1.085951        -0.370706
 H        -0.418174        -0.725706        -0.849106
 H         3.978908         1.115949        -1.104972
 H         1.900246         2.988648         1.433457
