19
Iteration:  3892
 C         4.602899        -0.416979         1.601887
 C         3.394483        -0.157754         0.904899
 C         2.196103        -1.156111         0.875208
 C         1.333263        -0.070856         0.087638
 C        -0.135958        -0.032796        -0.171785
 O         2.150558         0.033786        -1.193049
 C         3.288266         0.673404        -0.468671
 C         2.524074         0.994521         0.750508
 O         2.267854         2.026367         1.610177
 H         5.309908        -1.260637         1.199016
 H         5.117754         0.471386         1.569029
 H         4.423813        -0.750098         2.700510
 H         2.290102        -2.009500         0.279282
 H         2.041952        -1.424185         1.957332
 H        -0.950393        -0.447962         0.485319
 H        -0.432750         0.864327        -0.724269
 H        -0.207233        -0.819309        -0.902512
 H         4.333726         0.801920        -0.842270
 H         1.799634         2.873767         1.144838
