19
Iteration:  3283charge 0 multiplicity 1
 C         4.560399        -0.419138         1.779662
 C         3.390473        -0.156259         0.874087
 C         2.154984        -1.148513         0.705890
 C         1.421678        -0.025687         0.054895
 C        -0.070349        -0.109778        -0.024060
 O         2.183391         0.091187        -1.257827
 C         3.216751         0.583422        -0.465602
 C         2.385061         0.952445         0.754570
 O         2.354650         2.054231         1.537734
 H         5.433673        -1.133173         1.518330
 H         5.178741         0.585060         1.924546
 H         4.150048        -0.891739         2.678908
 H         2.234295        -2.120499         0.063796
 H         1.742299        -1.367797         1.735176
 H        -0.464105        -0.553199         0.888029
 H        -0.560362         0.844910        -0.139680
 H        -0.333564        -0.699856        -0.889027
 H         3.995851         1.252868        -0.954075
 H         2.168194         2.899752         1.029741
