19
Iteration:   170
 C         4.609343        -0.501412         1.602562
 C         3.312291        -0.208307         0.923078
 C         2.200158        -1.180647         0.771337
 C         1.449720         0.015662         0.088049
 C        -0.036845         0.031809        -0.112883
 O         2.181301         0.035994        -1.134318
 C         3.323796         0.522111        -0.453390
 C         2.507488         1.006572         0.755274
 O         2.149712         2.189240         1.504681
 H         5.114693        -1.313004         1.011342
 H         5.257630         0.431302         1.660374
 H         4.520542        -0.802951         2.675039
 H         2.262988        -2.062558         0.218319
 H         1.769732        -1.583641         1.690762
 H        -0.581542         0.003108         0.859229
 H        -0.324142         0.886288        -0.718223
 H        -0.293553        -0.829111        -0.753598
 H         4.253976         0.649562        -0.998608
 H         1.193302         2.059631         2.031393
