19
Iteration:  4860
 C         4.729629        -0.347070         1.646588
 C         3.350209        -0.297445         0.990546
 C         2.238527        -1.245224         0.779274
 C         1.394489        -0.054354         0.051617
 C        -0.128576        -0.027689        -0.181064
 O         2.082032         0.153557        -1.216506
 C         3.269236         0.599066        -0.432791
 C         2.435178         0.898859         0.815910
 O         2.234118         2.071005         1.593173
 H         5.395766        -0.985811         1.042336
 H         5.299732         0.572721         1.541754
 H         4.657580        -0.409068         2.726176
 H         2.468753        -2.198713         0.242696
 H         1.865324        -1.448977         1.739876
 H        -0.649420        -0.452793         0.670165
 H        -0.493993         1.021963        -0.389477
 H        -0.375464        -0.676281        -1.087841
 H         4.135036         1.164247        -0.870975
 H         2.026867         2.764336         0.816662
