19
Iteration:  1563
 C         4.617656        -0.464467         1.748790
 C         3.298202        -0.276600         0.890724
 C         2.149548        -1.286630         0.659395
 C         1.436910        -0.037453        -0.025059
 C        -0.028860        -0.032450        -0.021486
 O         2.185687         0.174311        -1.232624
 C         3.233219         0.652277        -0.411516
 C         2.501092         0.994163         0.772158
 O         2.234760         2.110078         1.560228
 H         5.450313        -0.852530         1.166044
 H         5.124174         0.413698         2.256839
 H         4.438641        -1.226919         2.472043
 H         2.434806        -2.175797         0.132149
 H         1.600977        -1.602158         1.605045
 H        -0.313017        -0.161943         1.083050
 H        -0.507341         0.909162        -0.370393
 H        -0.628143        -0.859091        -0.495872
 H         4.101578         1.024497        -0.917721
 H         1.936958         2.662592         0.959078
