19
Iteration:  3681
 C         4.656438        -0.357348         1.579336
 C         3.310500        -0.259180         0.948596
 C         2.193482        -1.253672         0.759878
 C         1.399285        -0.056750         0.027340
 C        -0.058177        -0.032206        -0.139306
 O         2.132336         0.009479        -1.179295
 C         3.187159         0.562835        -0.391337
 C         2.437409         1.010784         0.818307
 O         2.254907         2.181479         1.587115
 H         5.370048        -0.998734         1.085955
 H         5.203262         0.611745         1.655048
 H         4.479123        -0.825712         2.574731
 H         2.360671        -2.144877         0.117122
 H         1.763994        -1.579829         1.737917
 H        -0.539365        -0.380513         0.773852
 H        -0.221992         1.033861        -0.442736
 H        -0.305323        -0.773926        -1.043056
 H         4.102422         0.958977        -0.898692
 H         2.926354         2.931632         1.178284
