19
Iteration:  1763charge 0 multiplicity 1
 C         4.578726        -0.554073         1.688004
 C         3.338655        -0.241534         0.947320
 C         2.208741        -1.200411         0.649875
 C         1.376751        -0.051151         0.010232
 C        -0.061111        -0.075969         0.058914
 O         2.241242         0.131682        -1.290887
 C         3.302124         0.622545        -0.449950
 C         2.398058         0.991266         0.775882
 O         2.233988         2.149528         1.574418
 H         5.387147        -0.881678         1.083368
 H         4.876176         0.378214         2.159463
 H         4.431361        -1.204396         2.667012
 H         2.663869        -2.034091         0.053049
 H         1.714859        -1.476908         1.523564
 H        -0.310204        -0.102124         1.149957
 H        -0.677390         0.832855        -0.335462
 H        -0.473507        -0.931572        -0.547083
 H         4.059377         1.295100        -0.850044
 H         1.882029         2.999679         0.884421
