19
Iteration:  4323
 C         4.470581        -0.306700         1.732159
 C         3.338196        -0.219873         0.773263
 C         2.215741        -1.268511         0.758800
 C         1.403025        -0.067663         0.051025
 C        -0.149411        -0.027009        -0.006294
 O         2.229262         0.080606        -1.229653
 C         3.311813         0.625562        -0.464937
 C         2.444688         0.962969         0.702749
 O         2.320635         2.037972         1.620284
 H         5.056339        -1.233184         1.405017
 H         5.190931         0.556473         1.624143
 H         4.161535        -0.293307         2.805475
 H         2.344887        -2.183522         0.084540
 H         2.074609        -1.648517         1.759150
 H        -0.506697        -0.201229         1.058386
 H        -0.674006         0.807071        -0.476251
 H        -0.316126        -0.802144        -0.787208
 H         4.090438         1.129371        -0.987745
 H         2.225303         2.845835         1.193669
