19
Iteration:  3880
 C         4.637988        -0.415675         1.632704
 C         3.333188        -0.184391         0.885019
 C         2.241232        -1.120995         0.907756
 C         1.418682        -0.015638         0.119737
 C        -0.142086        -0.072814        -0.226159
 O         2.147865         0.062269        -1.206064
 C         3.273780         0.615782        -0.443393
 C         2.426773         1.016632         0.692961
 O         2.279750         1.962023         1.604456
 H         5.165278        -1.191169         0.960501
 H         5.296795         0.403697         1.781201
 H         4.453191        -0.838819         2.696174
 H         2.446945        -2.085292         0.562007
 H         1.722734        -1.130656         1.890214
 H        -0.613727        -0.277282         0.749880
 H        -0.530823         0.922165        -0.507191
 H        -0.334882        -0.767380        -1.027033
 H         4.109572         1.085266        -0.928962
 H         2.027084         2.873848         1.118687
