19
Iteration:  2652
 C         4.669509        -0.211091         1.659811
 C         3.314118        -0.323425         0.939017
 C         2.151782        -1.313732         0.809094
 C         1.330618         0.011290         0.050352
 C        -0.131897        -0.001631        -0.194357
 O         2.183900         0.139421        -1.183231
 C         3.239077         0.567469        -0.438252
 C         2.464326         0.868895         0.801394
 O         2.329991         2.019965         1.585389
 H         5.258120        -1.151680         1.544291
 H         5.198935         0.556717         1.267462
 H         4.271403        -0.126390         2.715050
 H         2.417393        -2.061282         0.093930
 H         1.772925        -1.498542         1.828324
 H        -0.650786        -0.225683         0.724026
 H        -0.419444         0.969443        -0.644769
 H        -0.263991        -0.714989        -1.053762
 H         4.092882         0.900978        -0.925242
 H         2.506763         2.884041         0.990069
