19
Iteration:  2557charge 0 multiplicity 1
 C         4.699957        -0.494614         1.722736
 C         3.339626        -0.284047         0.907649
 C         2.142404        -1.285645         0.819025
 C         1.479480        -0.050292         0.056498
 C        -0.058001        -0.005914        -0.055024
 O         2.141397         0.157360        -1.225570
 C         3.299705         0.626056        -0.440977
 C         2.462245         1.003582         0.749190
 O         2.192738         2.111146         1.485314
 H         5.426698        -1.129999         1.257021
 H         5.127432         0.580696         1.631171
 H         4.381768        -0.746926         2.667437
 H         2.239648        -2.196837         0.222547
 H         1.711297        -1.363467         1.809455
 H        -0.556613         0.204499         0.869660
 H        -0.251115         0.855885        -0.692098
 H        -0.533133        -0.851884        -0.570057
 H         4.065969         1.066253        -0.991782
 H         1.518504         2.438643         1.023243
