19
Iteration:  1500
 C         4.650882        -0.340079         1.598333
 C         3.366576        -0.200111         0.903333
 C         2.217424        -1.227222         0.736841
 C         1.415237        -0.167898         0.040233
 C        -0.035852         0.168006        -0.229769
 O         2.161648         0.000915        -1.259109
 C         3.164618         0.590791        -0.396919
 C         2.389003         0.944951         0.797386
 O         2.269564         1.990869         1.750807
 H         4.973537        -1.276126         1.272187
 H         5.338521         0.507713         1.429197
 H         4.470668        -0.465920         2.696075
 H         2.501543        -2.248747         0.300771
 H         1.756515        -1.381183         1.715372
 H        -0.588974         0.398664         0.664600
 H         0.084039         1.136073        -0.715330
 H        -0.439279        -0.549016        -0.939322
 H         3.966397         1.211509        -0.740070
 H         1.880302         2.826440         1.551126
