19
Iteration:  3152charge 0 multiplicity 1
 C         4.729494        -0.411548         1.658543
 C         3.373423        -0.311547         0.915980
 C         2.175425        -1.257014         0.759055
 C         1.435130        -0.069093         0.028975
 C        -0.088250         0.050222        -0.077275
 O         2.206273         0.131623        -1.237651
 C         3.246694         0.588458        -0.408108
 C         2.399625         0.906005         0.769169
 O         2.116703         2.110789         1.549620
 H         5.374091        -1.191091         1.217259
 H         5.162558         0.698863         1.752990
 H         4.582230        -0.632484         2.717202
 H         2.487446        -2.204481         0.240879
 H         1.639878        -1.405344         1.692343
 H        -0.458944         0.383305         0.907903
 H        -0.510088         0.794219        -0.757025
 H        -0.606586        -0.933889        -0.263662
 H         4.105716         1.091737        -0.830866
 H         2.649908         2.832797         1.064221
