19
Iteration:  2077charge 0 multiplicity 1
 C         4.557207        -0.358769         1.733046
 C         3.357169        -0.279717         0.874877
 C         2.234230        -1.256691         0.680130
 C         1.416296        -0.148295         0.004023
 C        -0.053132         0.043400        -0.004902
 O         2.160407         0.072854        -1.204683
 C         3.239160         0.644037        -0.408769
 C         2.416450         0.973799         0.715731
 O         2.280661         2.083753         1.594369
 H         5.016624        -1.332252         1.627073
 H         5.387202         0.436220         1.591589
 H         4.296820        -0.341428         2.795151
 H         2.374326        -2.037765        -0.044117
 H         1.693680        -1.596532         1.567210
 H        -0.503126        -0.103786         0.977790
 H        -0.291642         1.074645        -0.388458
 H        -0.580833        -0.668198        -0.702470
 H         4.034653         1.024306        -1.130936
 H         2.365166         2.883338         0.836856
