19
Iteration:   419charge 0 multiplicity 1
 C         4.503948        -0.294625         1.727325
 C         3.263722        -0.284979         0.933058
 C         2.239480        -1.346659         0.641856
 C         1.411413        -0.090379         0.076048
 C        -0.083482         0.080945        -0.057614
 O         2.232056         0.074892        -1.224176
 C         3.204756         0.601200        -0.405597
 C         2.388147         0.941111         0.749135
 O         2.369043         2.101342         1.576590
 H         5.134227        -1.142451         1.301135
 H         5.077589         0.580313         1.648546
 H         4.268405        -0.698245         2.736533
 H         2.486646        -2.115181        -0.131468
 H         1.906816        -1.685708         1.590264
 H        -0.511640        -0.055676         0.940836
 H        -0.446608         0.969458        -0.542444
 H        -0.417812        -0.691381        -0.734057
 H         4.069715         1.081530        -0.914331
 H         2.537971         2.917192         0.991273
