19
Iteration:  2138
 C         4.698857        -0.442599         1.645429
 C         3.347399        -0.341780         0.923432
 C         2.105286        -1.123507         0.831301
 C         1.476188        -0.007491         0.014682
 C        -0.057475        -0.029555        -0.092952
 O         2.175769         0.155089        -1.264598
 C         3.243787         0.525637        -0.422601
 C         2.498422         0.975477         0.770777
 O         2.181694         2.089366         1.591876
 H         5.404832        -0.903005         0.885594
 H         5.122188         0.545142         1.759364
 H         4.464416        -1.004312         2.532397
 H         2.031587        -2.199339         0.422259
 H         1.653221        -1.266135         1.866663
 H        -0.462843         0.112789         0.920660
 H        -0.529038         0.692023        -0.739146
 H        -0.249487        -0.965342        -0.651967
 H         4.146330         0.916175        -0.852331
 H         1.809948         2.749895         1.071985
