19
Iteration:   329charge 0 multiplicity 1
 C         4.679336        -0.527551         1.524722
 C         3.388754        -0.291745         0.877321
 C         2.218712        -1.185254         0.787248
 C         1.394129        -0.015589         0.133793
 C        -0.102545         0.155139        -0.106379
 O         2.289290        -0.044343        -1.185208
 C         3.368410         0.598554        -0.269337
 C         2.389418         0.943445         0.773242
 O         1.982272         2.188039         1.440658
 H         5.297172        -1.439258         1.206042
 H         5.316981         0.349299         1.465014
 H         4.335529        -0.692163         2.596009
 H         2.236382        -1.964214        -0.040156
 H         1.954725        -1.573823         1.729302
 H        -0.537241         0.216419         0.896341
 H        -0.278273         1.047060        -0.698830
 H        -0.590740        -0.655305        -0.663390
 H         4.139498         1.093499        -0.813913
 H         2.597643         2.456105         2.076963
