19
Iteration:   547
 C         4.655963        -0.455609         1.794703
 C         3.340074        -0.317489         0.951304
 C         2.190493        -1.261261         0.580114
 C         1.480167        -0.023612         0.066686
 C        -0.033690         0.034982         0.004208
 O         2.075780         0.203632        -1.276788
 C         3.266906         0.549951        -0.291183
 C         2.474979         0.930588         0.845538
 O         2.204104         2.100037         1.379440
 H         5.220818        -1.233546         1.290391
 H         5.123871         0.476199         1.797846
 H         4.495533        -0.623898         2.863360
 H         2.371184        -2.028621        -0.240879
 H         1.769795        -1.799226         1.451736
 H        -0.547501         0.046479         1.010195
 H        -0.305256         0.979517        -0.429975
 H        -0.311916        -0.868794        -0.562688
 H         4.218300         1.109753        -0.467667
 H         1.843850         2.855434         0.716714
