19
Iteration:  1990charge 0 multiplicity 1
 C         4.659440        -0.419020         1.647461
 C         3.367650        -0.208709         0.884093
 C         2.223859        -1.227340         0.838712
 C         1.360972        -0.149137         0.039335
 C        -0.087994         0.026721        -0.266761
 O         2.099384         0.016718        -1.148311
 C         3.237668         0.638903        -0.460431
 C         2.402671         1.002312         0.807354
 O         2.327066         2.107402         1.652180
 H         5.177990        -1.111715         1.064047
 H         5.197363         0.563289         1.736218
 H         4.517112        -0.825402         2.640055
 H         2.335344        -2.068758         0.084222
 H         1.839917        -1.602927         1.839018
 H        -0.623698         0.101613         0.619196
 H        -0.093495         0.978461        -0.785645
 H        -0.313724        -0.848571        -0.795029
 H         3.939101         1.262769        -1.068706
 H         2.086110         2.857728         1.227549
