19
Iteration:  4973charge 0 multiplicity 1
 C         4.640703        -0.379006         1.692202
 C         3.364194        -0.236779         0.918963
 C         2.275350        -1.269221         0.620375
 C         1.381677        -0.162221         0.066153
 C        -0.102034        -0.032172        -0.049082
 O         2.131522         0.118574        -1.216659
 C         3.263546         0.594779        -0.421253
 C         2.432770         0.952501         0.783450
 O         2.248444         2.138874         1.576156
 H         5.248616        -1.123944         1.258959
 H         5.395804         0.480890         1.728832
 H         4.334890        -0.506290         2.748701
 H         2.701838        -2.047253         0.014180
 H         1.671421        -1.491866         1.500973
 H        -0.582576         0.393256         0.884131
 H        -0.205762         0.662798        -0.850372
 H        -0.739412        -0.878854        -0.175570
 H         4.069572         1.310183        -0.793754
 H         1.809929         2.724960         1.094137
