19
Iteration:  4052
 C         4.697517        -0.367290         1.568402
 C         3.348741        -0.199072         0.995042
 C         2.094248        -1.306024         0.816839
 C         1.374761        -0.073277         0.104019
 C        -0.127407        -0.013124        -0.216961
 O         2.180968         0.094478        -1.147321
 C         3.296003         0.555203        -0.372328
 C         2.419985         1.042945         0.753549
 O         2.275800         2.074054         1.536938
 H         5.169561        -1.107139         1.008176
 H         5.173807         0.675598         1.419043
 H         4.762507        -0.593410         2.594336
 H         2.298376        -2.145082         0.064862
 H         1.944733        -1.506835         1.900259
 H        -0.562753        -0.283379         0.761888
 H        -0.280122         0.975563        -0.679092
 H        -0.248598        -0.850924        -0.971468
 H         4.279911         0.873816        -0.861388
 H         1.763285         2.853686         1.245636
