19
Iteration:  1392
 C         4.624351        -0.574943         1.761657
 C         3.445132        -0.251800         0.900864
 C         2.237730        -1.237209         0.710369
 C         1.398202        -0.083598         0.041334
 C        -0.104996         0.001917        -0.134936
 O         2.069102         0.190432        -1.210207
 C         3.270306         0.673991        -0.506713
 C         2.433867         0.938995         0.798962
 O         2.294250         2.114813         1.604866
 H         5.504296        -1.215285         1.461268
 H         5.079722         0.373845         2.156854
 H         4.097878        -0.908310         2.733669
 H         2.616419        -2.001134        -0.011110
 H         1.829032        -1.687918         1.550251
 H        -0.672933        -0.164968         0.768681
 H        -0.362674         0.951449        -0.580431
 H        -0.478773        -0.757648        -0.803264
 H         4.060469         1.351884        -0.933230
 H         1.718018         2.829541         0.977355
