19
Iteration:   116
 C         4.663763        -0.388609         1.475801
 C         3.329500        -0.209077         0.921714
 C         2.169859        -1.217437         0.892573
 C         1.429747        -0.035611         0.097033
 C        -0.031121         0.166310        -0.208053
 O         2.228442        -0.060191        -1.176568
 C         3.266442         0.530581        -0.421579
 C         2.444877         0.983085         0.798928
 O         2.089431         2.037677         1.631785
 H         5.177830        -1.349109         1.216853
 H         5.375467         0.417575         1.128205
 H         4.617872        -0.336604         2.592380
 H         2.271091        -2.171978         0.189733
 H         1.811606        -1.403317         1.960118
 H        -0.638732         0.311509         0.715320
 H        -0.113981         1.009547        -0.892677
 H        -0.381475        -0.759455        -0.696834
 H         4.124126         0.984616        -0.909630
 H         2.245217         2.959007         1.235460
