19
Iteration:  1120charge 0 multiplicity 1
 C         4.626490        -0.412591         1.665080
 C         3.364750        -0.312362         0.841827
 C         2.207994        -1.304518         0.709996
 C         1.424207         0.025775         0.071586
 C        -0.033271         0.083448        -0.124928
 O         2.087854         0.123787        -1.224721
 C         3.337494         0.565485        -0.372849
 C         2.429939         0.951118         0.801145
 O         2.175803         2.048629         1.605017
 H         5.490994        -0.785826         1.046174
 H         5.034996         0.474047         1.931125
 H         4.560270        -0.996632         2.626128
 H         2.256850        -2.277649         0.153786
 H         1.812034        -1.267209         1.685090
 H        -0.652821         0.093717         0.814855
 H        -0.336195         0.947170        -0.700501
 H        -0.376423        -0.786679        -0.703228
 H         4.147502         1.168952        -0.754168
 H         2.405078         2.772829         1.206623
