19
Iteration:  4616charge 0 multiplicity 1
 C         4.679147        -0.465582         1.657033
 C         3.373603        -0.249603         0.928881
 C         2.187201        -1.201324         0.716138
 C         1.443680        -0.004922         0.101992
 C        -0.015981        -0.104045        -0.061860
 O         2.101483         0.174986        -1.259923
 C         3.271740         0.618675        -0.406831
 C         2.423106         0.945912         0.797298
 O         2.123037         2.097878         1.500424
 H         5.282267        -1.377075         1.272740
 H         5.167369         0.499752         1.630609
 H         4.513295        -0.887088         2.717176
 H         2.556250        -2.025343         0.092408
 H         1.840874        -1.426279         1.770436
 H        -0.422973        -0.129870         1.022937
 H        -0.331612         0.819713        -0.534175
 H        -0.351594        -1.055758        -0.551341
 H         4.204370         1.109081        -0.791657
 H         2.446969         2.903259         1.218048
