19
Iteration:  1554charge 0 multiplicity 1
 C         4.606056        -0.468801         1.696098
 C         3.380229        -0.322514         0.897932
 C         2.155793        -1.230830         0.740960
 C         1.474552         0.002766        -0.010125
 C        -0.017781         0.008546        -0.027030
 O         2.183055         0.204007        -1.263087
 C         3.285802         0.561671        -0.464781
 C         2.416191         0.936194         0.798968
 O         2.178205         2.098788         1.580492
 H         5.376587        -0.740812         1.086345
 H         4.869872         0.538349         2.122441
 H         4.394451        -1.114352         2.563376
 H         2.211873        -2.091119        -0.004588
 H         1.672930        -1.416435         1.710914
 H        -0.158508        -0.196068         1.053858
 H        -0.575377         0.914091        -0.376303
 H        -0.389277        -0.927315        -0.553776
 H         4.187367         0.822254        -0.946328
 H         1.879412         2.787262         1.169614
