19
Iteration:  1705charge 0 multiplicity 1
 C         4.712070        -0.368257         1.700764
 C         3.421069        -0.270776         0.817137
 C         2.219976        -1.308600         0.745307
 C         1.374207        -0.100598         0.107066
 C        -0.057876         0.143362        -0.126739
 O         2.129313         0.140938        -1.227930
 C         3.225472         0.653026        -0.427560
 C         2.438391         0.892728         0.765950
 O         2.166846         1.991969         1.625737
 H         5.320659        -1.278329         1.610086
 H         5.401589         0.563048         1.591281
 H         4.347575        -0.447064         2.723835
 H         2.417320        -2.139254         0.129115
 H         1.721204        -1.729340         1.632215
 H        -0.657139         0.124984         0.787115
 H        -0.064446         1.119073        -0.615957
 H        -0.468280        -0.661166        -0.734846
 H         4.111666         1.070586        -0.973266
 H         1.985702         2.816679         0.996680
