19
Iteration:  2856charge 0 multiplicity 1
 C         4.585665        -0.363474         1.625404
 C         3.302163        -0.153239         0.863996
 C         2.174080        -1.123484         0.820761
 C         1.351602        -0.009028         0.058525
 C        -0.056130        -0.039446        -0.229950
 O         2.190575        -0.013695        -1.169671
 C         3.265401         0.580360        -0.462442
 C         2.417252         1.048178         0.685681
 O         2.328793         1.925282         1.722517
 H         5.131830        -1.232096         1.288712
 H         5.418071         0.484184         1.217984
 H         4.450607        -0.195616         2.703059
 H         2.264286        -2.181737         0.543665
 H         1.826366        -1.092991         1.871307
 H        -0.412044        -0.583612         0.730062
 H        -0.495710         1.035443        -0.321427
 H        -0.386364        -0.666951        -1.094959
 H         4.092664         0.974143        -0.998793
 H         2.177797         2.848859         1.366609
