19
Iteration:  1321charge 0 multiplicity 1
 C         4.640984        -0.405548         1.563140
 C         3.330630        -0.225477         0.915087
 C         2.160131        -1.228355         0.827336
 C         1.438669        -0.038252        -0.003795
 C        -0.035482         0.125192        -0.180402
 O         2.197285         0.057686        -1.215904
 C         3.273827         0.603100        -0.393051
 C         2.395891         1.016415         0.750249
 O         2.198126         1.926072         1.718475
 H         5.308330        -1.053321         0.968430
 H         5.214622         0.599462         1.640252
 H         4.569419        -0.754474         2.572716
 H         2.396353        -2.053375         0.149774
 H         1.752213        -1.673277         1.817795
 H        -0.634283         0.089200         0.744710
 H        -0.189568         1.111760        -0.713384
 H        -0.481544        -0.696983        -0.795067
 H         4.105603         1.020546        -0.942005
 H         2.032354         2.760218         1.271741
