19
Iteration:  1670charge 0 multiplicity 1
 C         4.671411        -0.343009         1.570541
 C         3.316388        -0.208854         0.875442
 C         2.151146        -1.259699         0.837115
 C         1.423413        -0.101282         0.062653
 C        -0.068729         0.084647        -0.205173
 O         2.212966         0.021120        -1.305346
 C         3.232494         0.637922        -0.449387
 C         2.351527         1.065921         0.747414
 O         2.321578         1.942853         1.808967
 H         5.067316        -1.430484         1.535712
 H         5.533872         0.371815         1.314993
 H         4.406308        -0.059862         2.562740
 H         2.316900        -2.119162         0.236804
 H         1.691341        -1.405789         1.875126
 H        -0.637800        -0.064703         0.724020
 H        -0.379114         0.987066        -0.668962
 H        -0.234144        -0.684628        -0.932217
 H         4.079864         1.039284        -0.937684
 H         1.533767         2.689820         1.463931
