19
Iteration:  2939
 C         4.601526        -0.508869         1.736389
 C         3.402864        -0.202849         0.850654
 C         2.157069        -1.179813         0.730953
 C         1.459560        -0.058126        -0.010041
 C        -0.019760        -0.049865         0.058764
 O         2.208185         0.062451        -1.249073
 C         3.281065         0.646216        -0.467930
 C         2.420622         1.021373         0.723423
 O         2.105045         2.119881         1.529456
 H         5.392121        -1.273416         1.339240
 H         4.983817         0.326296         2.185112
 H         4.420288        -1.135956         2.617578
 H         2.536380        -2.075855         0.126007
 H         1.579841        -1.521071         1.663907
 H        -0.144223         0.308555         1.075969
 H        -0.517153         0.782398        -0.367195
 H        -0.469302        -0.958095        -0.220550
 H         4.115038         1.029172        -0.924407
 H         2.309878         2.848760         1.034472
