19
Iteration:  2631
 C         4.617757        -0.200327         1.774448
 C         3.323071        -0.333555         0.902785
 C         2.108879        -1.219454         0.726668
 C         1.436648        -0.099600         0.026477
 C        -0.060444        -0.060948        -0.099843
 O         2.078265         0.174727        -1.259062
 C         3.276223         0.549452        -0.427420
 C         2.471477         0.930904         0.731811
 O         2.344132         2.023019         1.596039
 H         5.033600        -1.213162         1.752203
 H         5.192462         0.407574         1.179790
 H         4.264944         0.009384         2.806468
 H         2.231482        -2.121182         0.166040
 H         1.679807        -1.318871         1.728705
 H        -0.473841        -0.351378         0.866973
 H        -0.472119         0.918028        -0.452158
 H        -0.348879        -0.734052        -1.006730
 H         4.132745         0.978735        -0.834166
 H         2.774774         2.721647         1.273152
