19
Iteration:  1995
 C         4.668283        -0.408062         1.647173
 C         3.320975        -0.169607         0.896522
 C         2.235272        -1.195744         0.793712
 C         1.341630        -0.132112         0.064926
 C        -0.073439         0.020998        -0.256904
 O         2.123289        -0.016703        -1.140224
 C         3.192345         0.644370        -0.433573
 C         2.365776         1.020313         0.756187
 O         2.368113         2.059190         1.681029
 H         5.291091        -1.191069         1.065999
 H         5.313644         0.455514         1.701966
 H         4.441218        -0.765971         2.722422
 H         2.415853        -2.053092         0.100436
 H         2.032051        -1.512322         1.802377
 H        -0.689128         0.156868         0.706188
 H        -0.058338         0.972912        -0.832007
 H        -0.338931        -0.795935        -1.037184
 H         4.021385         1.051099        -1.075052
 H         1.953742         2.896935         1.078297
