19
Iteration:  3531
 C         4.631322        -0.427040         1.621844
 C         3.431339        -0.112412         0.836930
 C         2.132255        -1.069017         0.849479
 C         1.375319        -0.054737         0.029547
 C        -0.036871        -0.051543        -0.153286
 O         2.167441        -0.005357        -1.262792
 C         3.284493         0.525947        -0.475867
 C         2.397433         1.009104         0.716056
 O         2.235626         2.029950         1.738061
 H         5.197598        -1.306985         1.137384
 H         5.206137         0.409731         1.807901
 H         4.346253        -0.612246         2.693208
 H         2.155028        -2.006302         0.368318
 H         1.967042        -1.189488         1.911116
 H        -0.421702        -0.039414         0.874354
 H        -0.275279         0.841860        -0.761851
 H        -0.354794        -0.911423        -0.624972
 H         4.042924         1.074366        -0.951912
 H         1.961968         2.760505         1.336597
