19
Iteration:  4851charge 0 multiplicity 1
 C         4.650726        -0.386927         1.622642
 C         3.354662        -0.212936         0.961576
 C         2.206379        -1.165816         0.714163
 C         1.395762        -0.044499         0.102224
 C        -0.062245        -0.074490        -0.138804
 O         2.176283         0.128108        -1.212430
 C         3.210422         0.600978        -0.421526
 C         2.446930         0.880354         0.846452
 O         2.209018         2.060957         1.568168
 H         5.290340        -1.112073         1.172979
 H         5.064940         0.645591         1.380717
 H         4.780882        -0.661568         2.649393
 H         2.504270        -2.095732         0.161741
 H         1.717728        -1.346204         1.619223
 H        -0.558647        -0.447884         0.758664
 H        -0.400581         0.917019        -0.278183
 H        -0.446666        -0.737700        -0.892362
 H         4.084902         0.995842        -0.918410
 H         2.220797         2.917458         0.911452
