19
Iteration:  1385charge 0 multiplicity 1
 C         4.612108        -0.500653         1.747361
 C         3.369090        -0.260774         0.877253
 C         2.234419        -1.260584         0.745287
 C         1.392834        -0.106151         0.069133
 C        -0.082052        -0.001185        -0.146430
 O         2.114202         0.237231        -1.242948
 C         3.247317         0.656808        -0.456979
 C         2.515086         0.919368         0.855206
 O         2.268338         2.080077         1.565779
 H         5.343226        -1.180513         1.245329
 H         4.992111         0.389188         2.122556
 H         4.360405        -1.069336         2.611906
 H         2.462757        -1.986258        -0.052616
 H         1.822548        -1.635332         1.757155
 H        -0.677605         0.036510         0.792733
 H        -0.322366         1.061147        -0.503532
 H        -0.484406        -0.780968        -0.866750
 H         3.931904         1.261737        -0.999027
 H         1.846477         2.728366         0.930909
