19
Iteration:  2942charge 0 multiplicity 1
 C         4.626513        -0.527789         1.741519
 C         3.400846        -0.195161         0.852496
 C         2.132678        -1.160123         0.715098
 C         1.510040        -0.050134        -0.008191
 C         0.003271        -0.054873         0.058281
 O         2.184390         0.061872        -1.247692
 C         3.278414         0.632813        -0.493821
 C         2.407074         1.028292         0.724061
 O         2.094170         2.096593         1.537232
 H         5.325619        -1.268414         1.349309
 H         4.977521         0.427257         2.273894
 H         4.328487        -1.100848         2.587132
 H         2.482503        -2.127282         0.281250
 H         1.606642        -1.409870         1.663609
 H        -0.138280         0.324737         1.166544
 H        -0.591509         0.871539        -0.425298
 H        -0.433268        -1.064594        -0.229713
 H         4.193600         1.085183        -0.917736
 H         2.339693         2.912838         1.026267
