19
Iteration:   669charge 0 multiplicity 1
 C         4.625129        -0.303947         1.592282
 C         3.280383        -0.244434         0.956387
 C         2.157287        -1.227855         0.767082
 C         1.334877        -0.122197         0.007957
 C        -0.125089         0.006806        -0.259771
 O         2.235826         0.084242        -1.163732
 C         3.231013         0.578168        -0.405139
 C         2.442806         0.974610         0.846433
 O         2.368879         2.054051         1.687724
 H         5.061867        -1.249060         1.282954
 H         5.182551         0.440528         1.132841
 H         4.653237        -0.219826         2.679451
 H         2.409062        -2.174597         0.159703
 H         1.658909        -1.515958         1.670480
 H        -0.652809        -0.000205         0.683682
 H        -0.216932         0.934833        -0.850197
 H        -0.539622        -0.795702        -0.891685
 H         4.034908         0.904308        -1.047748
 H         2.237368         2.787929         1.237716
