19
Iteration:  4670
 C         4.657515        -0.410061         1.690425
 C         3.317042        -0.166841         0.937091
 C         2.258589        -1.262555         0.695034
 C         1.462728        -0.117208         0.047435
 C        -0.062722        -0.026294        -0.102610
 O         2.147752         0.095557        -1.178366
 C         3.217535         0.643973        -0.457509
 C         2.370002         0.945635         0.746996
 O         2.277454         2.113481         1.584383
 H         5.194211        -1.288963         1.234129
 H         5.407067         0.337803         1.558221
 H         4.316646        -0.504165         2.739933
 H         2.499512        -2.159523         0.193520
 H         1.652585        -1.545874         1.602773
 H        -0.506610        -0.506450         0.837777
 H        -0.328426         1.029242        -0.143675
 H        -0.430458        -0.584828        -0.997119
 H         3.982850         1.087084        -1.082194
 H         1.622016         2.774406         1.371244
