19
Iteration:   840
 C         4.590687        -0.373428         1.546850
 C         3.349277        -0.285122         0.902397
 C         2.197530        -1.218391         0.764779
 C         1.416503         0.002974         0.022296
 C        -0.050240        -0.005392        -0.246270
 O         2.180860         0.057491        -1.162179
 C         3.249498         0.573283        -0.435018
 C         2.383906         1.070604         0.792369
 O         2.278116         1.996043         1.779367
 H         4.952079        -1.342394         1.383509
 H         5.266714         0.504609         1.156545
 H         4.404349        -0.222170         2.593078
 H         2.125937        -2.214118         0.347123
 H         1.773618        -1.222386         1.851204
 H        -0.700508        -0.094296         0.672311
 H        -0.302744         0.961339        -0.740824
 H        -0.235929        -0.852522        -0.976813
 H         4.124565         0.761886        -1.080302
 H         2.460638         2.945851         1.252717
