19
Iteration:  4127charge 0 multiplicity 1
 C         4.632464        -0.343506         1.819145
 C         3.401050        -0.298024         0.870015
 C         2.160336        -1.247876         0.695303
 C         1.407815        -0.038817        -0.008634
 C        -0.101538        -0.048832        -0.022648
 O         2.127331         0.068664        -1.262433
 C         3.289929         0.635840        -0.488652
 C         2.413357         0.920896         0.720407
 O         2.308260         2.130654         1.613212
 H         5.279585        -1.223203         1.733633
 H         5.323049         0.648917         1.586628
 H         4.250125        -0.372857         2.829315
 H         2.221874        -2.081480        -0.062923
 H         1.663505        -1.678190         1.568988
 H        -0.440094        -0.153110         1.033956
 H        -0.399502         0.961010        -0.349466
 H        -0.449609        -0.990234        -0.555470
 H         4.209456         1.154906        -0.913582
 H         1.792051         2.848640         0.985806
