19
Iteration:  3396
 C         4.675365        -0.464710         1.686783
 C         3.421359        -0.193140         0.866144
 C         2.205211        -1.141356         0.861180
 C         1.387065         0.015738         0.118055
 C        -0.101756         0.052461        -0.110226
 O         2.178391         0.062535        -1.218737
 C         3.323929         0.643156        -0.466254
 C         2.458660         0.964177         0.715691
 O         2.142769         1.949068         1.537324
 H         5.181276        -1.347422         1.286618
 H         5.498936         0.363691         1.462311
 H         4.477794        -0.622943         2.825095
 H         2.219364        -2.068608         0.226348
 H         1.753607        -1.466175         1.825519
 H        -0.638482         0.067255         0.800696
 H        -0.318118         0.861279        -0.744046
 H        -0.525032        -0.814943        -0.580521
 H         4.240206         1.129740        -0.897806
 H         1.394220         2.457305         1.133663
