19
Iteration:  2052
 C         4.600344        -0.257134         1.704727
 C         3.349225        -0.318506         0.893483
 C         2.114204        -1.188639         0.815927
 C         1.406449         0.018871         0.018636
 C        -0.082719        -0.003109        -0.014516
 O         2.161379         0.195740        -1.312424
 C         3.324367         0.526024        -0.451833
 C         2.487707         0.876586         0.726017
 O         2.266990         1.952842         1.617513
 H         5.119512        -1.292695         1.668309
 H         5.391252         0.528425         1.384380
 H         4.392141        -0.108393         2.755151
 H         2.178806        -2.066439         0.225029
 H         1.665662        -1.373282         1.809294
 H        -0.649978        -0.411666         0.884578
 H        -0.587720         0.908910        -0.413511
 H        -0.252978        -0.777650        -0.911722
 H         4.074255         0.994922        -1.000366
 H         2.279842         2.630896         0.899971
