19
Iteration:  1378charge 0 multiplicity 1
 C         4.583345        -0.456267         1.717032
 C         3.344989        -0.287692         0.884395
 C         2.225736        -1.271042         0.723094
 C         1.420999        -0.093433         0.092416
 C        -0.069546         0.022606        -0.140541
 O         2.155917         0.254344        -1.241457
 C         3.194898         0.639273        -0.385995
 C         2.513385         0.931043         0.842482
 O         2.256110         2.045406         1.541926
 H         5.246872        -0.953220         1.030775
 H         5.111290         0.552579         2.019428
 H         4.473728        -1.191386         2.546111
 H         2.241988        -2.190037         0.120531
 H         1.861145        -1.526900         1.761067
 H        -0.588024        -0.015355         0.843001
 H        -0.215134         0.987524        -0.594886
 H        -0.437854        -0.719609        -0.842487
 H         4.022266         1.110416        -0.925815
 H         1.984344         2.600501         0.934796
