19
Iteration:  3803charge 0 multiplicity 1
 C         4.646030        -0.347245         1.764824
 C         3.354294        -0.347404         0.910535
 C         2.230346        -1.313200         0.692257
 C         1.452216        -0.118045         0.038438
 C        -0.087263         0.054737        -0.063716
 O         2.136297         0.141242        -1.241558
 C         3.145896         0.640360        -0.491719
 C         2.477469         0.917061         0.850446
 O         2.268464         2.119036         1.531813
 H         5.467179        -1.100971         1.642413
 H         5.105162         0.566414         1.540659
 H         4.327385        -0.435230         2.857772
 H         2.423317        -2.165960         0.089090
 H         1.751807        -1.677255         1.622126
 H        -0.522041         0.134247         0.921779
 H        -0.439360         0.967702        -0.555526
 H        -0.443298        -0.904840        -0.508166
 H         3.891545         1.164765        -1.042102
 H         2.192549         2.711031         0.865761
