19
Iteration:  2259charge 0 multiplicity 1
 C         4.499633        -0.404234         1.727993
 C         3.311946        -0.208557         0.901034
 C         2.235968        -1.174243         0.718772
 C         1.372431        -0.101312        -0.072545
 C        -0.055002        -0.051323         0.033958
 O         2.223709         0.074929        -1.279236
 C         3.289911         0.597521        -0.477612
 C         2.449076         1.036302         0.710251
 O         2.265862         2.065825         1.654765
 H         4.823598        -1.500758         1.490879
 H         5.227291         0.431034         1.441970
 H         4.242870        -0.451036         2.861529
 H         2.374261        -2.196761         0.112148
 H         1.747941        -1.461621         1.760026
 H        -0.186722        -0.303265         1.061492
 H        -0.407521         0.950989        -0.136246
 H        -0.551029        -0.663313        -0.747901
 H         4.251880         0.880903        -0.994329
 H         2.256092         2.993751         1.127871
