19
Iteration:   340charge 0 multiplicity 1
 C         4.660033        -0.594524         1.647942
 C         3.380332        -0.247516         0.934480
 C         2.204407        -1.213093         0.743317
 C         1.472066        -0.053459         0.061876
 C        -0.010593         0.162579        -0.004851
 O         2.219171        -0.009451        -1.242333
 C         3.335319         0.630772        -0.380138
 C         2.382797         0.997029         0.768295
 O         1.950499         2.172264         1.418568
 H         5.154678        -1.426231         1.040586
 H         5.334388         0.261433         1.657668
 H         4.642339        -0.923860         2.724535
 H         2.400899        -2.163774         0.199693
 H         1.824681        -1.435904         1.710921
 H        -0.557968         0.192970         0.940966
 H        -0.278129         1.060081        -0.549598
 H        -0.350088        -0.740961        -0.528019
 H         4.203014         1.199438        -0.648408
 H         2.664835         2.453926         1.862931
