19
Iteration:  2458charge 0 multiplicity 1
 C         4.647005        -0.372218         1.731861
 C         3.344316        -0.278746         0.882736
 C         2.134777        -1.217433         0.785450
 C         1.481007        -0.112753         0.095448
 C        -0.071139        -0.027884        -0.059140
 O         2.138776         0.135201        -1.275081
 C         3.281283         0.657000        -0.487802
 C         2.479961         0.932157         0.727992
 O         2.198237         2.083717         1.580257
 H         5.062754        -1.313517         1.426283
 H         5.364355         0.510472         1.550035
 H         4.240702        -0.300562         2.683690
 H         2.136844        -2.183170         0.193101
 H         1.525289        -1.199078         1.745898
 H        -0.605704        -0.421528         0.751224
 H        -0.458696         0.949002        -0.233683
 H        -0.321558        -0.768261        -0.758660
 H         4.302986         0.810258        -0.951563
 H         2.650527         2.714382         1.082812
