19
Iteration:  4934
 C         4.602499        -0.299207         1.699117
 C         3.414949        -0.257047         0.828008
 C         2.155227        -1.159862         0.757055
 C         1.437492        -0.079089        -0.018030
 C        -0.106690        -0.076331         0.009590
 O         2.163597         0.129294        -1.299959
 C         3.322221         0.571920        -0.476079
 C         2.467582         0.996941         0.746671
 O         2.195763         1.946188         1.679817
 H         5.321927        -1.088074         1.209872
 H         5.128518         0.651723         1.633681
 H         4.378283        -0.375898         2.806988
 H         2.166140        -2.238468         0.444664
 H         1.649687        -1.146338         1.803441
 H        -0.472370         0.134591         0.997318
 H        -0.488081         0.789105        -0.650755
 H        -0.517026        -0.935310        -0.590716
 H         4.152543         1.042126        -1.049435
 H         2.269998         2.844746         1.250262
