19
Iteration:  1743charge 0 multiplicity 1
 C         4.582393        -0.401666         1.672995
 C         3.292566        -0.246101         0.907055
 C         2.134201        -1.250554         0.664449
 C         1.505082        -0.051432        -0.014450
 C        -0.082367        -0.043481         0.121379
 O         2.276906         0.175938        -1.236673
 C         3.292161         0.664819        -0.384620
 C         2.389444         0.951398         0.753834
 O         2.197781         2.038233         1.500620
 H         5.237247        -0.975244         0.967406
 H         5.163129         0.396004         2.000540
 H         4.280496        -1.118387         2.532036
 H         2.496307        -2.007401        -0.148576
 H         1.613991        -1.752296         1.502080
 H        -0.233047        -0.119886         1.258057
 H        -0.508171         0.923557        -0.348433
 H        -0.672325        -0.828376        -0.444957
 H         4.313050         0.856007        -0.570266
 H         2.210833         2.988650         0.870246
