19
Iteration:  4990
 C         4.687666        -0.429166         1.699826
 C         3.391593        -0.188329         0.898605
 C         2.327602        -1.289716         0.723756
 C         1.408598        -0.075641        -0.008512
 C        -0.160667        -0.002359        -0.121730
 O         2.133135         0.083244        -1.211029
 C         3.193954         0.617895        -0.389177
 C         2.377749         0.969279         0.842994
 O         2.250222         2.166133         1.576826
 H         5.270323        -1.356798         1.343217
 H         5.256209         0.480078         1.582967
 H         4.567581        -0.783116         2.730324
 H         2.480247        -1.932095        -0.213858
 H         2.201652        -1.931366         1.604368
 H        -0.542070         0.240648         0.879263
 H        -0.537506         0.749148        -0.868519
 H        -0.508718        -1.081218        -0.242788
 H         3.988030         0.881238        -1.000607
 H         1.828767         2.787738         1.079321
