19
Iteration:  3674
 C         4.638790        -0.348724         1.577691
 C         3.289005        -0.238573         0.885503
 C         2.191675        -1.267145         0.796548
 C         1.448523        -0.020141         0.061679
 C        -0.036198        -0.013896        -0.110751
 O         2.152181         0.026309        -1.194192
 C         3.217181         0.549955        -0.391702
 C         2.389217         1.013314         0.789664
 O         2.254626         2.145260         1.568068
 H         5.356780        -1.076443         1.063138
 H         5.200757         0.500701         1.812852
 H         4.422802        -0.833225         2.573571
 H         2.409799        -2.164194         0.188075
 H         1.615842        -1.459540         1.762749
 H        -0.545111        -0.547054         0.722104
 H        -0.583746         0.871012        -0.469874
 H        -0.251969        -0.708062        -0.831402
 H         4.114781         1.050350        -0.881455
 H         2.944564         2.787967         1.268136
