19
Iteration:  1902
 C         4.527731        -0.445586         1.763451
 C         3.447598        -0.214927         0.848750
 C         2.304433        -1.228564         0.710590
 C         1.476718        -0.074059         0.051596
 C        -0.069610         0.073635        -0.017668
 O         2.133262         0.095609        -1.209741
 C         3.210252         0.690075        -0.499026
 C         2.406442         0.895438         0.779586
 O         2.246150         2.003256         1.536673
 H         4.977460        -1.355991         1.451345
 H         5.369258         0.359451         1.842160
 H         4.153651        -0.587777         2.779616
 H         2.484147        -2.181031         0.076941
 H         2.036869        -1.392635         1.842199
 H        -0.648437         0.069989         0.862117
 H        -0.431617         1.016171        -0.504331
 H        -0.408858        -0.723085        -0.705461
 H         3.892043         1.178074        -1.128668
 H         1.724250         2.939523         1.095786
