19
Iteration:  4886charge 0 multiplicity 1
 C         4.660304        -0.273684         1.633761
 C         3.375940        -0.263824         0.844918
 C         2.174127        -1.259036         0.752969
 C         1.392034        -0.163870         0.153669
 C        -0.040219         0.008919        -0.215191
 O         2.148977         0.077862        -1.180720
 C         3.189996         0.652081        -0.465859
 C         2.356242         0.915566         0.825050
 O         2.349375         2.051131         1.618345
 H         5.336097        -1.010095         1.236732
 H         5.188233         0.732810         1.575320
 H         4.465838        -0.338618         2.707239
 H         2.313426        -2.224676         0.270326
 H         1.886264        -1.447803         1.827625
 H        -0.666570        -0.282677         0.653022
 H        -0.222062         1.040809        -0.306440
 H        -0.246020        -0.416131        -1.166805
 H         4.038769         1.144500        -0.877772
 H         1.492134         2.597933         1.221849
