19
Iteration:  2136charge 0 multiplicity 1
 C         4.698770        -0.437724         1.647084
 C         3.363085        -0.322689         0.932340
 C         2.106523        -1.138143         0.819561
 C         1.465296        -0.018732         0.046261
 C        -0.058269        -0.030178        -0.108444
 O         2.167156         0.160166        -1.267191
 C         3.260744         0.539261        -0.427782
 C         2.500881         0.979772         0.770663
 O         2.182915         2.086976         1.586902
 H         5.360556        -0.921390         0.924526
 H         5.137810         0.476937         1.795704
 H         4.458626        -1.040096         2.582857
 H         1.986502        -2.236183         0.395051
 H         1.615216        -1.258915         1.827114
 H        -0.445688         0.096972         0.896931
 H        -0.525718         0.718062        -0.693142
 H        -0.297334        -0.946199        -0.574463
 H         4.113357         0.897803        -0.922182
 H         1.812413         2.664939         0.988639
