19
Iteration:  4162
 C         4.545910        -0.385432         1.691829
 C         3.331851        -0.262027         0.897256
 C         2.276750        -1.259645         0.767939
 C         1.473704        -0.069272         0.018941
 C        -0.046828         0.059943        -0.021093
 O         2.129890         0.104421        -1.241268
 C         3.337134         0.610126        -0.393705
 C         2.382172         0.919495         0.752835
 O         2.251510         2.045189         1.500971
 H         5.242074        -1.091467         1.248505
 H         5.201988         0.719567         1.744507
 H         4.359210        -0.523938         2.770522
 H         2.618667        -2.013516         0.004125
 H         1.660654        -1.641424         1.655907
 H        -0.404277         0.171127         1.070523
 H        -0.665785         0.793512        -0.588970
 H        -0.666057        -0.798210        -0.412015
 H         4.142458         1.066096        -0.857069
 H         1.662510         2.822388         1.128589
