19
Iteration:  2207
 C         4.584006        -0.321487         1.726449
 C         3.393142        -0.276134         0.827377
 C         2.193633        -1.289361         0.742982
 C         1.337856        -0.116229         0.093592
 C        -0.061095         0.000636        -0.172577
 O         2.086285         0.143748        -1.179592
 C         3.230797         0.586045        -0.419490
 C         2.470026         0.960336         0.835772
 O         2.373897         2.065041         1.573635
 H         5.223194        -1.175083         1.508994
 H         5.398071         0.493827         1.518346
 H         4.265109        -0.265221         2.696138
 H         2.380666        -2.242380         0.282457
 H         1.792375        -1.618607         1.708833
 H        -0.762665         0.027861         0.651178
 H        -0.160070         1.019953        -0.680248
 H        -0.283070        -0.718335        -1.044099
 H         3.995106         1.088463        -1.019332
 H         1.867329         2.781039         0.961970
