19
Iteration:  1454charge 0 multiplicity 1
 C         4.702012        -0.362552         1.719267
 C         3.344304        -0.251868         0.882277
 C         2.055160        -1.178875         0.718374
 C         1.407480        -0.045799         0.005050
 C        -0.094813        -0.079862        -0.144877
 O         2.190638         0.233732        -1.279469
 C         3.273297         0.567111        -0.428534
 C         2.402186         0.889528         0.792038
 O         2.313644         1.991992         1.703200
 H         4.930061        -1.345001         1.769842
 H         5.439409         0.395070         1.330291
 H         4.493929        -0.035596         2.715700
 H         2.089408        -1.987259        -0.057612
 H         1.529105        -1.456826         1.712134
 H        -0.452265        -0.092691         0.928033
 H        -0.429155         0.892072        -0.502429
 H        -0.343361        -0.939531        -0.804523
 H         4.161307         1.055730        -0.924480
 H         2.297524         2.709720         1.024553
