19
Iteration:  2887
 C         4.706489        -0.344382         1.671853
 C         3.364716        -0.317941         0.953583
 C         2.145703        -1.331383         0.709918
 C         1.387939        -0.100404         0.086873
 C        -0.033846         0.009034        -0.192580
 O         2.100020         0.140474        -1.208358
 C         3.191871         0.586993        -0.382471
 C         2.444972         0.900171         0.829223
 O         2.293693         2.159097         1.556210
 H         5.542369        -1.043268         1.399210
 H         5.241453         0.707127         1.505987
 H         4.722619        -0.414206         2.746309
 H         2.300117        -2.268209         0.169395
 H         1.709853        -1.346562         1.733709
 H        -0.722961        -0.166528         0.762120
 H        -0.340763         1.082163        -0.580643
 H        -0.385405        -0.745218        -0.965897
 H         3.990500         1.054487        -0.845823
 H         2.004600         2.779449         0.889099
