19
Iteration:  1883charge 0 multiplicity 1
 C         4.653068        -0.380415         1.766912
 C         3.416817        -0.262298         0.798766
 C         2.204813        -1.223489         0.761751
 C         1.350974        -0.108428         0.119012
 C        -0.054147         0.037344        -0.126272
 O         2.093002         0.126823        -1.254490
 C         3.236308         0.644301        -0.515839
 C         2.521314         0.959035         0.724323
 O         2.245649         1.962121         1.647584
 H         5.233902        -1.283413         1.827971
 H         5.394149         0.403341         1.642133
 H         4.162641        -0.164294         2.806401
 H         2.304492        -2.181361         0.231669
 H         1.841153        -1.399198         1.752586
 H        -0.506800        -0.088711         0.850762
 H        -0.272976         1.034417        -0.571623
 H        -0.561897        -0.546233        -0.859771
 H         4.082864         1.209118        -0.866160
 H         1.813432         2.853534         1.041896
