19
Iteration:  3886
 C         4.609438        -0.437821         1.619526
 C         3.346950        -0.180942         0.889400
 C         2.242672        -1.120305         0.911017
 C         1.365019        -0.032732         0.127738
 C        -0.153399        -0.045184        -0.201855
 O         2.138567         0.042452        -1.208688
 C         3.292464         0.663327        -0.437730
 C         2.495430         1.013679         0.713703
 O         2.268848         1.977692         1.585575
 H         5.141494        -1.175122         1.103676
 H         5.260347         0.569212         1.716843
 H         4.498580        -0.770872         2.606535
 H         2.511049        -2.118305         0.324959
 H         1.872289        -1.167202         1.937539
 H        -0.755354        -0.442656         0.627935
 H        -0.485798         0.885133        -0.689346
 H        -0.367589        -0.829799        -1.023721
 H         4.290090         0.946768        -0.836831
 H         1.990235         2.720752         1.235610
