19
Iteration:   104charge 0 multiplicity 1
 C         4.710914        -0.350599         1.621115
 C         3.340441        -0.287856         0.925951
 C         2.202298        -1.213196         0.763701
 C         1.426989        -0.044317         0.115056
 C         0.002623         0.116538        -0.164426
 O         2.157696        -0.011776        -1.230544
 C         3.271751         0.376810        -0.479123
 C         2.390513         1.032624         0.732376
 O         2.072358         2.157244         1.711377
 H         5.171238        -1.329801         1.225489
 H         5.295073         0.503414         1.245254
 H         4.759261        -0.327894         2.744780
 H         2.456285        -2.180854         0.144329
 H         1.659537        -1.571531         1.684885
 H        -0.564928         0.289487         0.774476
 H        -0.171148         1.010351        -0.762701
 H        -0.425419        -0.728197        -0.724550
 H         4.187197         0.677598        -1.025032
 H         2.652437         3.026939         1.323092
