19
Iteration:  1416
 C         4.474170        -0.520586         1.756809
 C         3.356553        -0.173503         0.841270
 C         2.178958        -1.181633         0.656620
 C         1.397691        -0.035644         0.068536
 C        -0.029618        -0.107119        -0.043256
 O         2.207434         0.130099        -1.252207
 C         3.260854         0.697814        -0.498090
 C         2.408328         0.994936         0.792956
 O         2.351439         2.070029         1.633218
 H         4.931683        -1.515315         1.341158
 H         5.335090         0.086373         1.843635
 H         4.105291        -0.611645         2.813640
 H         2.438057        -1.928532        -0.108320
 H         1.909663        -1.645923         1.582090
 H        -0.502364        -0.385454         0.882838
 H        -0.460158         0.861787        -0.388456
 H        -0.413450        -0.872103        -0.733089
 H         4.075902         1.227999        -0.959777
 H         1.938420         2.757261         1.223514
