19
Iteration:  1131
 C         4.649348        -0.392708         1.622922
 C         3.375355        -0.342121         0.865271
 C         2.159247        -1.226605         0.813146
 C         1.447341        -0.020548         0.047093
 C        -0.054798         0.090557        -0.156358
 O         2.192768         0.173931        -1.194863
 C         3.263900         0.551902        -0.451129
 C         2.446452         0.940162         0.783215
 O         2.137722         2.037036         1.656114
 H         5.336399        -0.869530         0.890713
 H         4.848267         0.553198         1.912047
 H         4.635805        -1.142417         2.453823
 H         2.264500        -2.215126         0.265858
 H         1.707950        -1.568603         1.716577
 H        -0.507859         0.068880         0.872414
 H        -0.329093         0.992745        -0.682143
 H        -0.326523        -0.821641        -0.708324
 H         4.129384         0.792348        -1.047238
 H         2.365745         2.889873         1.153815
