19
Iteration:  2999
 C         4.683856        -0.294808         1.673919
 C         3.335305        -0.280180         0.901020
 C         2.124022        -1.241202         0.743985
 C         1.441678        -0.097039         0.038129
 C        -0.017061         0.045244        -0.177064
 O         2.161138        -0.001919        -1.215901
 C         3.177504         0.578430        -0.387982
 C         2.346358         0.920896         0.852883
 O         2.344168         2.116460         1.609542
 H         5.222829        -1.017825         1.190451
 H         5.277378         0.579410         1.227579
 H         4.597744        -0.354597         2.720726
 H         2.462179        -2.020123         0.055160
 H         1.710069        -1.610434         1.647835
 H        -0.514183         0.059509         0.832541
 H        -0.144049         0.994737        -0.841439
 H        -0.597755        -0.831303        -0.687903
 H         4.003348         1.198538        -0.841419
 H         1.657877         2.846604         1.158570
