19
Iteration:  4398
 C         4.709141        -0.406049         1.567978
 C         3.354804        -0.220028         0.882525
 C         2.221150        -1.232357         0.817817
 C         1.430008        -0.030968         0.105964
 C        -0.045537         0.045536        -0.153859
 O         2.225893        -0.010238        -1.244595
 C         3.216751         0.584157        -0.459276
 C         2.349023         0.971067         0.767012
 O         2.162616         2.094310         1.671282
 H         5.438741        -1.120786         1.055707
 H         5.133476         0.485559         1.872232
 H         4.412666        -0.735958         2.611311
 H         2.252512        -2.200471         0.225480
 H         1.710163        -1.293599         1.803583
 H        -0.518705         0.223492         0.802428
 H        -0.384075         0.811401        -0.783480
 H        -0.291624        -0.888182        -0.613431
 H         3.996255         1.253300        -0.854828
 H         2.067925         2.839885         1.209503
