19
Iteration:  4748
 C         4.630592        -0.268561         1.643253
 C         3.334931        -0.232030         0.933567
 C         2.180088        -1.242022         0.699822
 C         1.413256        -0.085166        -0.003598
 C        -0.068035         0.002891        -0.093297
 O         2.189493         0.051971        -1.207911
 C         3.252902         0.646685        -0.414624
 C         2.337242         0.957095         0.740611
 O         2.315242         1.961205         1.662890
 H         5.193224        -1.056797         1.028471
 H         5.145050         0.656802         1.605412
 H         4.686108        -0.441062         2.753762
 H         2.311070        -2.118339         0.082127
 H         1.813098        -1.532421         1.726100
 H        -0.486853         0.310920         0.892492
 H        -0.494715         0.778408        -0.802940
 H        -0.418176        -0.978652        -0.508621
 H         4.004768         1.216722        -0.854334
 H         2.058303         2.859682         1.224197
