19
Iteration:  1367charge 0 multiplicity 1
 C         4.632262        -0.433093         1.590689
 C         3.335709        -0.318777         0.922542
 C         2.146527        -1.276875         0.700270
 C         1.439779        -0.052168         0.049172
 C        -0.006737         0.068603        -0.107437
 O         2.181632         0.201364        -1.185280
 C         3.272562         0.650867        -0.361010
 C         2.347869         0.882615         0.783269
 O         2.242975         2.039517         1.567382
 H         5.470562        -0.756175         0.999515
 H         4.935831         0.649172         2.025175
 H         4.544551        -1.024442         2.535188
 H         2.291214        -2.269524         0.270394
 H         1.605326        -1.350169         1.683529
 H        -0.598083        -0.075312         0.817298
 H        -0.312140         0.972730        -0.600429
 H        -0.310550        -0.775845        -0.719407
 H         4.279401         0.966593        -0.583913
 H         2.141024         2.814805         1.020988
