19
Iteration:  1365charge 0 multiplicity 1
 C         4.654326        -0.424205         1.579664
 C         3.315633        -0.317375         0.916989
 C         2.133340        -1.274663         0.707076
 C         1.437829        -0.049359         0.031809
 C         0.000447         0.069459        -0.103621
 O         2.186824         0.186332        -1.182032
 C         3.295813         0.649017        -0.351729
 C         2.334918         0.878455         0.785848
 O         2.238656         2.033074         1.578652
 H         5.503864        -0.782036         1.026549
 H         4.866143         0.613814         2.006654
 H         4.584839        -0.987108         2.480128
 H         2.309118        -2.237885         0.224600
 H         1.537870        -1.344829         1.711028
 H        -0.594947        -0.036417         0.833554
 H        -0.359958         1.014045        -0.580033
 H        -0.293102        -0.808638        -0.732707
 H         4.266975         0.990347        -0.599638
 H         2.160808         2.950380         0.984313
