19
Iteration:  3938
 C         4.617534        -0.304170         1.655779
 C         3.299702        -0.232696         0.956437
 C         2.204309        -1.307617         0.759793
 C         1.353463        -0.104517         0.071002
 C        -0.141471        -0.014300        -0.044902
 O         2.288403         0.165602        -1.259554
 C         3.228797         0.653116        -0.433908
 C         2.429139         0.893165         0.806823
 O         2.297891         2.043865         1.522466
 H         5.100043        -1.290525         1.444053
 H         5.309948         0.467292         1.403078
 H         4.499290        -0.395834         2.743467
 H         2.513820        -2.148629         0.118942
 H         1.640776        -1.522034         1.647864
 H        -0.667876        -0.021223         0.952448
 H        -0.369834         0.937181        -0.559807
 H        -0.703399        -0.797781        -0.502483
 H         4.185354         0.968080        -0.968073
 H         2.075651         2.717420         0.754704
