19
Iteration:  1669charge 0 multiplicity 1
 C         4.674456        -0.345579         1.563374
 C         3.315785        -0.208435         0.882390
 C         2.141713        -1.252989         0.837952
 C         1.426546        -0.106634         0.058815
 C        -0.067127         0.077371        -0.205280
 O         2.220674         0.026188        -1.304775
 C         3.228981         0.634216        -0.454860
 C         2.352402         1.070296         0.749470
 O         2.322131         1.943732         1.809320
 H         5.079146        -1.434460         1.551391
 H         5.495266         0.367834         1.334484
 H         4.412348        -0.033462         2.570500
 H         2.287381        -2.138853         0.207322
 H         1.711210        -1.387308         1.883116
 H        -0.648133        -0.057491         0.717907
 H        -0.418859         0.980779        -0.643979
 H        -0.250549        -0.694525        -0.930383
 H         4.088014         1.027838        -0.940747
 H         1.549689         2.686764         1.490533
