19
Iteration:  2323charge 0 multiplicity 1
 C         4.630342        -0.373575         1.550066
 C         3.276487        -0.282734         0.985089
 C         2.162168        -1.300607         0.846266
 C         1.418822        -0.060913         0.067003
 C        -0.086857         0.046534        -0.160495
 O         2.193651         0.122535        -1.230946
 C         3.272376         0.584507        -0.333100
 C         2.451763         1.000892         0.775049
 O         2.259989         2.056082         1.564463
 H         5.367546        -0.807541         0.820441
 H         5.166198         0.533726         1.662383
 H         4.781271        -0.864524         2.591200
 H         2.489561        -2.147731         0.215778
 H         1.787230        -1.659245         1.833653
 H        -0.703267         0.307795         0.699143
 H        -0.282768         0.826654        -0.890763
 H        -0.476559        -0.896825        -0.597090
 H         4.143532         0.943128        -0.870161
 H         1.824362         2.797346         0.939165
