19
Iteration:  3813charge 0 multiplicity 1
 C         4.682181        -0.315972         1.754767
 C         3.377804        -0.297583         0.966685
 C         2.223399        -1.289266         0.648679
 C         1.404126        -0.078112         0.041777
 C        -0.080462         0.006068        -0.055172
 O         2.050691         0.135371        -1.237973
 C         3.223325         0.599546        -0.382508
 C         2.450248         0.878124         0.793432
 O         2.297085         2.086633         1.499714
 H         5.308872        -1.158541         1.387838
 H         5.173657         0.678107         1.743465
 H         4.473829        -0.358029         2.872243
 H         2.376964        -2.045191        -0.067744
 H         1.689723        -1.592454         1.541196
 H        -0.544314         0.133751         0.890965
 H        -0.147706         0.910020        -0.679175
 H        -0.607380        -0.720128        -0.745575
 H         4.092610         1.085863        -0.785171
 H         2.108092         2.736926         0.934842
