19
Iteration:  2304charge 0 multiplicity 1
 C         4.714428        -0.434773         1.692635
 C         3.403541        -0.287552         0.931075
 C         2.219993        -1.266409         0.782603
 C         1.442444        -0.065473         0.065711
 C        -0.075925         0.061585        -0.197950
 O         2.077610         0.159113        -1.171121
 C         3.215809         0.575080        -0.492861
 C         2.432440         0.901972         0.852819
 O         2.236109         2.124765         1.541958
 H         5.492827        -1.176174         1.234879
 H         5.251723         0.623613         1.802791
 H         4.566532        -0.803305         2.745674
 H         2.381174        -2.307942         0.241330
 H         1.716805        -1.460446         1.834598
 H        -0.614540         0.239094         0.687982
 H        -0.371183         0.866293        -0.882761
 H        -0.514446        -0.778397        -0.778542
 H         4.074269         0.995334        -0.906255
 H         1.622546         2.709094         0.973774
