19
Iteration:  1009
 C         4.626040        -0.358988         1.566020
 C         3.324133        -0.200334         0.890632
 C         2.175939        -1.266038         0.796466
 C         1.425950        -0.088438         0.008126
 C        -0.065797         0.090198        -0.237905
 O         2.140661         0.036643        -1.181654
 C         3.276221         0.632041        -0.412812
 C         2.372038         0.973234         0.811577
 O         2.321890         2.021241         1.737458
 H         4.952144        -1.436964         1.285378
 H         5.256657         0.415339         1.255818
 H         4.477753        -0.328745         2.708171
 H         2.384961        -2.265657         0.277072
 H         1.674006        -1.443749         1.700562
 H        -0.740467        -0.029012         0.656834
 H        -0.234489         1.027558        -0.776175
 H        -0.194797        -0.776806        -0.866584
 H         4.152526         1.082303        -0.948579
 H         2.115107         2.708172         1.250274
