19
Iteration:   453
 C         4.665929        -0.283442         1.674191
 C         3.364847        -0.308713         0.896938
 C         2.124440        -1.204052         0.795143
 C         1.365073        -0.054698        -0.000261
 C        -0.133380        -0.004459        -0.298673
 O         2.143790         0.120403        -1.200732
 C         3.234160         0.517041        -0.432679
 C         2.449153         0.933712         0.774241
 O         2.430437         2.053828         1.708960
 H         5.300056        -1.096707         1.288944
 H         5.154630         0.677079         1.575534
 H         4.549476        -0.326030         2.762103
 H         2.026680        -2.297317         0.629763
 H         1.725950        -1.101838         1.809195
 H        -0.769676        -0.149255         0.559951
 H        -0.438092         0.934142        -0.768639
 H        -0.287032        -0.913578        -0.861639
 H         4.067769         0.995448        -0.974715
 H         1.507162         2.603471         1.434817
