19
Iteration:  2034charge 0 multiplicity 1
 C         4.639063        -0.304786         1.670577
 C         3.349585        -0.298789         0.852420
 C         2.054756        -1.196195         0.780706
 C         1.433951        -0.059786        -0.011582
 C        -0.051460        -0.036929        -0.155729
 O         2.155309         0.118773        -1.200260
 C         3.253056         0.570532        -0.473598
 C         2.465065         0.991627         0.738393
 O         2.336842         1.993151         1.674955
 H         5.210179        -1.181812         1.671973
 H         5.178946         0.624669         1.360465
 H         4.474443        -0.054768         2.717634
 H         2.082650        -2.280584         0.460130
 H         1.684612        -1.125881         1.841491
 H        -0.520925        -0.299389         0.750295
 H        -0.388014         0.998179        -0.300088
 H        -0.543424        -0.745954        -0.774129
 H         4.272904         0.825049        -0.939679
 H         1.809051         2.717395         1.291393
