19
Iteration:   291charge 0 multiplicity 1
 C         4.681784        -0.382994         1.588670
 C         3.313423        -0.273511         1.075787
 C         2.143009        -1.173755         0.946146
 C         1.468126        -0.055142         0.009735
 C         0.043685         0.033286        -0.224768
 O         2.105001         0.133786        -1.312729
 C         3.156709         0.532702        -0.435185
 C         2.393365         0.946932         0.782327
 O         2.283379         2.067666         1.500848
 H         5.215592        -1.251384         1.250277
 H         5.277599         0.574358         1.412353
 H         4.650942        -0.385445         2.681799
 H         2.344299        -2.085356         0.445749
 H         1.517518        -1.449797         1.839280
 H        -0.498153         0.128363         0.743144
 H        -0.098690         1.038213        -0.668364
 H        -0.381120        -0.785682        -0.824682
 H         4.029335         1.071336        -0.801072
 H         2.181981         1.655881         2.480273
