19
Iteration:   719
 C         4.507550        -0.526796         1.772884
 C         3.410412        -0.249039         0.863869
 C         2.185586        -1.262930         0.787782
 C         1.457000        -0.020740         0.008834
 C        -0.002887        -0.045873         0.025335
 O         2.112279         0.192198        -1.272645
 C         3.303511         0.756493        -0.500059
 C         2.516468         0.932673         0.748876
 O         2.218557         2.053117         1.510703
 H         5.125953        -1.365473         1.459478
 H         5.138292         0.454737         1.987700
 H         3.920035        -0.849828         2.645900
 H         2.104583        -2.145482         0.226687
 H         1.764641        -1.423472         1.828698
 H        -0.287528        -0.221862         1.106503
 H        -0.322097         0.850319        -0.468226
 H        -0.415372        -0.859784        -0.603412
 H         4.263983         1.087607        -0.855007
 H         1.744689         2.808531         0.857086
