19
Iteration:  4536charge 0 multiplicity 1
 C         4.628425        -0.247360         1.669701
 C         3.376138        -0.310916         0.880575
 C         2.166509        -1.156658         0.745229
 C         1.405585        -0.081158         0.047306
 C        -0.074881         0.008476        -0.076638
 O         2.179270         0.118116        -1.212227
 C         3.236342         0.560446        -0.493673
 C         2.433220         0.949387         0.706181
 O         2.278242         1.965823         1.682106
 H         5.294897        -0.964735         1.211740
 H         5.201512         0.768433         1.576756
 H         4.506385        -0.435358         2.711131
 H         2.272163        -2.156751         0.412520
 H         1.795008        -1.277844         1.778312
 H        -0.779117         0.053450         0.750614
 H        -0.302389         0.812090        -0.841607
 H        -0.256362        -0.884465        -0.751294
 H         4.170092         0.783340        -1.079490
 H         1.582495         2.549182         1.463811
