19
Iteration:   561charge 0 multiplicity 1
 C         4.632822        -0.477961         1.800859
 C         3.382850        -0.347923         0.966808
 C         2.235097        -1.293233         0.628137
 C         1.381589        -0.057812         0.041025
 C        -0.112238         0.030821         0.060056
 O         2.194946         0.243612        -1.235147
 C         3.322837         0.592202        -0.435200
 C         2.425011         0.888908         0.776678
 O         2.165823         2.168042         1.434928
 H         5.470438        -1.232887         1.448093
 H         5.103084         0.517092         1.958175
 H         4.347909        -0.841025         2.854525
 H         2.444596        -2.054550        -0.134546
 H         1.690488        -1.670838         1.418208
 H        -0.475903        -0.043034         1.081352
 H        -0.463812         1.013022        -0.360758
 H        -0.542216        -0.754311        -0.581182
 H         4.118690         0.988747        -1.059885
 H         2.175587         2.737307         0.609895
