19
Iteration:   463charge 0 multiplicity 1
 C         4.623374        -0.314633         1.606733
 C         3.350835        -0.230535         0.790422
 C         2.052656        -1.204457         0.947916
 C         1.342819        -0.010028         0.116561
 C        -0.099729        -0.043677        -0.318797
 O         2.194792         0.116486        -1.213325
 C         3.293811         0.518287        -0.501518
 C         2.480468         0.990573         0.808691
 O         2.390494         2.003609         1.723699
 H         5.424102        -1.098923         1.414335
 H         5.167227         0.598846         1.452468
 H         4.333527        -0.445084         2.686453
 H         2.093362        -2.170082         0.395653
 H         1.663582        -1.264126         1.904550
 H        -0.672728        -0.187483         0.591787
 H        -0.459393         0.792652        -0.914858
 H        -0.256603        -0.858688        -1.012754
 H         4.191396         0.934189        -1.012167
 H         1.486589         2.570984         1.425942
