19
Iteration:  1674
 C         4.663215        -0.331723         1.594475
 C         3.323394        -0.205366         0.840296
 C         2.188944        -1.260487         0.837933
 C         1.404109        -0.069469         0.071459
 C        -0.065143         0.104659        -0.200167
 O         2.179915         0.005422        -1.289382
 C         3.235686         0.645855        -0.426445
 C         2.365627         1.018542         0.735737
 O         2.298623         1.955341         1.794849
 H         4.982949        -1.324211         1.475664
 H         5.537728         0.298052         1.232624
 H         4.418674        -0.176453         2.678231
 H         2.444241        -2.193269         0.293196
 H         1.665502        -1.479732         1.750845
 H        -0.614388        -0.098062         0.727481
 H        -0.201924         1.091211        -0.772132
 H        -0.246406        -0.705971        -0.964427
 H         4.115887         1.119362        -0.946896
 H         1.710079         2.529213         1.495586
