19
Iteration:  1167charge 0 multiplicity 1
 C         4.662064        -0.453375         1.570401
 C         3.324582        -0.250252         0.885341
 C         2.156098        -1.176510         0.819679
 C         1.386281        -0.042472        -0.047411
 C        -0.048561         0.128041        -0.160560
 O         2.291501         0.049971        -1.183712
 C         3.236429         0.599122        -0.385527
 C         2.311171         0.932980         0.768405
 O         2.266048         2.025499         1.689808
 H         5.440336        -0.933302         0.824916
 H         5.287412         0.502513         1.810661
 H         4.633822        -1.047857         2.492806
 H         2.299587        -2.028523         0.209063
 H         1.784413        -1.297413         1.860269
 H        -0.498631        -0.054780         0.762518
 H        -0.500033         1.015386        -0.628849
 H        -0.384964        -0.719079        -0.775931
 H         3.948342         1.200454        -0.955321
 H         1.593755         2.561888         1.395359
