19
Iteration:   309charge 0 multiplicity 1
 C         4.758855        -0.423264         1.589545
 C         3.311017        -0.272835         0.979221
 C         2.118385        -1.264158         0.792890
 C         1.432105        -0.099297         0.075977
 C        -0.054389         0.151068        -0.198694
 O         2.179784         0.034035        -1.154104
 C         3.276859         0.627684        -0.387166
 C         2.450561         0.936948         0.795716
 O         2.102992         2.149485         1.464419
 H         5.187903        -1.321761         1.083008
 H         5.376009         0.368855         1.285666
 H         4.950765        -0.515964         2.668068
 H         2.235849        -2.317090         0.288125
 H         1.621049        -1.398632         1.767670
 H        -0.705068         0.213932         0.689490
 H        -0.196893         0.999055        -0.851832
 H        -0.385841        -0.740496        -0.743413
 H         4.179828         0.988673        -0.866299
 H         2.540313         2.177408         2.433313
