19
Iteration:  3359
 C         4.598623        -0.304519         1.553804
 C         3.287089        -0.308002         0.930939
 C         2.133106        -1.298345         0.810962
 C         1.451615        -0.168349         0.061638
 C        -0.078986         0.044105        -0.120341
 O         2.259019         0.077089        -1.257067
 C         3.274468         0.612017        -0.364910
 C         2.420904         0.960613         0.789244
 O         2.250041         2.130165         1.623315
 H         5.159510        -1.169204         1.028449
 H         5.103332         0.691804         1.307798
 H         4.731586        -0.508973         2.595393
 H         2.463828        -2.069826        -0.001726
 H         1.636934        -1.620456         1.773155
 H        -0.475266         0.526639         0.813361
 H        -0.288249         0.915037        -0.812505
 H        -0.582585        -0.859723        -0.513770
 H         4.262543         0.916147        -0.667285
 H         1.661946         2.669346         1.178087
