19
Iteration:   105charge 0 multiplicity 1
 C         4.705452        -0.355660         1.608967
 C         3.338736        -0.288378         0.925918
 C         2.204598        -1.208998         0.773903
 C         1.425536        -0.041176         0.118529
 C         0.002760         0.121722        -0.171174
 O         2.165921        -0.016268        -1.226633
 C         3.270249         0.382378        -0.480428
 C         2.390597         1.030781         0.738236
 O         2.071094         2.150024         1.708381
 H         5.156779        -1.317536         1.226431
 H         5.311618         0.515073         1.214778
 H         4.758976        -0.332171         2.727335
 H         2.470607        -2.211933         0.125018
 H         1.654753        -1.559439         1.728998
 H        -0.573617         0.301961         0.770921
 H        -0.167075         1.016494        -0.767639
 H        -0.414712        -0.740038        -0.719872
 H         4.174632         0.707676        -1.003634
 H         2.627645         3.048265         1.321480
