19
Iteration:  3065
 C         4.558889        -0.397954         1.703297
 C         3.371053        -0.224918         0.842430
 C         2.097355        -1.153667         0.859077
 C         1.396671        -0.044062         0.084508
 C        -0.059974        -0.100053        -0.109011
 O         2.171655         0.050065        -1.232340
 C         3.294102         0.705169        -0.578956
 C         2.485664         1.032922         0.700022
 O         2.282080         1.987162         1.653964
 H         5.173534        -1.171456         1.425826
 H         5.288986         0.502431         1.597880
 H         4.345423        -0.446108         2.740355
 H         2.051478        -2.198060         0.526778
 H         1.726912        -1.213793         1.866610
 H        -0.366018        -0.684036         0.785670
 H        -0.465835         0.952294        -0.218954
 H        -0.344120        -0.763482        -1.044988
 H         4.152324         1.068369        -1.038509
 H         2.310566         2.808030         1.087492
