19
Iteration:  3725
 C         4.617241        -0.357033         1.603402
 C         3.348506        -0.274047         0.852935
 C         2.199762        -1.190312         0.841091
 C         1.424923        -0.030849         0.054059
 C        -0.009573         0.018149        -0.163664
 O         2.121726         0.106148        -1.194358
 C         3.260738         0.553814        -0.374619
 C         2.348573         0.896081         0.862526
 O         2.329879         2.064211         1.520069
 H         5.248963        -1.173781         1.260346
 H         5.236563         0.514607         1.328179
 H         4.591766        -0.438335         2.710181
 H         2.263841        -2.108227         0.251412
 H         1.865631        -1.327743         1.882453
 H        -0.522473        -0.126957         0.762413
 H        -0.336005         0.878727        -0.775354
 H        -0.507506        -0.901396        -0.705804
 H         4.078437         1.258486        -0.771466
 H         1.434836         2.568217         1.230526
