19
Iteration:  1196
 C         4.605013        -0.440589         1.706238
 C         3.340897        -0.270092         0.882508
 C         2.227424        -1.258417         0.719256
 C         1.423300        -0.060159         0.056210
 C        -0.022260         0.047577        -0.150135
 O         2.103508         0.166993        -1.192292
 C         3.259034         0.626573        -0.483794
 C         2.450165         0.945223         0.794886
 O         2.267273         2.072714         1.673075
 H         5.053227        -1.354327         1.308724
 H         5.309190         0.298306         1.632447
 H         4.611622        -0.756886         2.760439
 H         2.328680        -2.191729         0.042070
 H         1.807691        -1.541225         1.680465
 H        -0.835456        -0.045017         0.633074
 H        -0.264594         0.946470        -0.743653
 H        -0.152160        -0.822164        -0.854042
 H         4.021114         1.101351        -1.065233
 H         1.644671         2.714141         1.111172
