19
Iteration:  3552
 C         4.617847        -0.370470         1.588572
 C         3.341211        -0.274883         0.920544
 C         2.149063        -1.237470         0.863367
 C         1.433839         0.039900         0.049232
 C        -0.038991        -0.028253        -0.117451
 O         2.196706         0.088470        -1.177234
 C         3.271060         0.641460        -0.490667
 C         2.518941         1.002654         0.743786
 O         2.195763         1.984571         1.601798
 H         5.101449        -1.278496         1.124456
 H         5.195373         0.469525         1.480829
 H         4.725794        -0.394131         2.716552
 H         2.134926        -2.209727         0.384598
 H         1.520332        -1.243220         1.790351
 H        -0.568197         0.154461         0.791380
 H        -0.341828         0.750315        -0.823232
 H        -0.327922        -0.872363        -0.515392
 H         4.101108         0.771973        -1.115577
 H         1.526728         2.667605         1.180030
