19
Iteration:   967charge 0 multiplicity 1
 C         4.683951        -0.331929         1.573552
 C         3.315898        -0.347884         0.900599
 C         2.154477        -1.266604         0.814039
 C         1.462887        -0.002084        -0.013482
 C        -0.066767         0.103524        -0.198854
 O         2.148262         0.114573        -1.167459
 C         3.278910         0.559017        -0.337375
 C         2.441842         0.900927         0.824326
 O         2.231608         2.025863         1.602718
 H         5.481609        -0.998934         0.970066
 H         5.143467         0.649743         1.740192
 H         4.598775        -0.951216         2.576574
 H         2.282360        -2.183981         0.260982
 H         1.609568        -1.556516         1.681644
 H        -0.598967         0.251847         0.795821
 H        -0.266767         1.003098        -0.739389
 H        -0.574401        -0.666706        -0.749703
 H         4.083159         1.165890        -0.813301
 H         1.768387         2.915342         1.056734
