19
Iteration:  4260
 C         4.618742        -0.406240         1.646334
 C         3.355383        -0.213808         0.872032
 C         2.139815        -1.217885         0.738312
 C         1.393643        -0.086431         0.055636
 C        -0.033438        -0.059727        -0.098828
 O         2.196317         0.086729        -1.158154
 C         3.241453         0.617002        -0.346061
 C         2.403031         0.931979         0.823496
 O         2.316097         2.126198         1.500118
 H         5.143537        -1.235582         1.282067
 H         5.231318         0.602973         1.521805
 H         4.626681        -0.371671         2.709723
 H         2.261337        -1.968848        -0.047025
 H         1.709655        -1.435198         1.712902
 H        -0.718764        -0.362631         0.793359
 H        -0.510625         0.884413        -0.485379
 H        -0.325180        -0.728780        -0.970069
 H         4.063660         1.081308        -0.806506
 H         1.759675         2.608614         1.023005
