19
Iteration:   677
 C         4.632982        -0.326278         1.612002
 C         3.296302        -0.207371         0.929951
 C         2.188859        -1.204799         0.756948
 C         1.369935        -0.106209         0.056820
 C        -0.143791         0.005187        -0.291377
 O         2.186915         0.069915        -1.212911
 C         3.265055         0.535331        -0.398420
 C         2.410599         0.996581         0.803272
 O         2.343232         2.052467         1.712233
 H         5.009701        -1.325088         1.390535
 H         5.525866         0.459781         1.291190
 H         4.509567        -0.392040         2.715717
 H         2.445456        -2.093281         0.076487
 H         1.779791        -1.504895         1.772613
 H        -0.541041        -0.002971         0.778822
 H        -0.487008         0.956992        -0.700384
 H        -0.683062        -0.826417        -0.798113
 H         4.181794         0.959892        -0.782089
 H         2.394711         2.759975         1.133385
