19
Iteration:  1179charge 0 multiplicity 1
 C         4.649449        -0.475696         1.548001
 C         3.349405        -0.200004         0.875163
 C         2.158444        -1.219505         0.762822
 C         1.415066        -0.092600         0.071430
 C        -0.106308         0.053576        -0.215255
 O         2.215971         0.052293        -1.215769
 C         3.250739         0.663898        -0.393714
 C         2.450776         1.000937         0.831545
 O         2.270016         2.040335         1.667369
 H         5.382488        -1.246046         1.137898
 H         5.040034         0.614323         1.815589
 H         4.345983        -0.837202         2.547260
 H         2.281163        -2.140103         0.260994
 H         1.741910        -1.530658         1.759230
 H        -0.529912         0.050772         0.757378
 H        -0.195155         1.095975        -0.563735
 H        -0.618349        -0.654907        -0.861528
 H         4.242610         1.019707        -0.758465
 H         1.386818         2.637596         1.412432
