19
Iteration:   408charge 0 multiplicity 1
 C         4.463847        -0.405182         1.747222
 C         3.352699        -0.285988         0.817058
 C         2.256475        -1.283508         0.617869
 C         1.421192        -0.053633         0.018256
 C        -0.089368         0.037444         0.013023
 O         2.146798         0.027910        -1.233296
 C         3.346221         0.625200        -0.351347
 C         2.426287         0.973203         0.804078
 O         2.253005         2.131765         1.532441
 H         5.279730        -1.089770         1.399164
 H         4.908051         0.558157         1.807169
 H         4.231241        -0.540078         2.828165
 H         2.415820        -2.160290        -0.060302
 H         1.813120        -1.661560         1.506177
 H        -0.592681        -0.004650         0.988333
 H        -0.258433         1.041554        -0.348736
 H        -0.554408        -0.716723        -0.597999
 H         4.245233         1.064575        -0.835518
 H         2.841375         2.920489         1.022184
