19
Iteration:  3874charge 0 multiplicity 1
 C         4.653776        -0.421702         1.639069
 C         3.380418        -0.153074         0.900152
 C         2.175994        -1.132123         0.902022
 C         1.427566        -0.039757         0.036244
 C        -0.080506        -0.070047        -0.200039
 O         2.170820         0.082339        -1.194474
 C         3.238508         0.561564        -0.472597
 C         2.366829         0.995520         0.694763
 O         2.283512         2.007248         1.640576
 H         5.222175        -1.126414         1.084839
 H         5.372258         0.463466         1.763549
 H         4.421082        -0.875989         2.551310
 H         2.243588        -2.277062         0.616313
 H         1.701558        -1.182858         1.894075
 H        -0.606419        -0.274686         0.773473
 H        -0.471893         0.942210        -0.396599
 H        -0.290333        -0.818231        -0.987195
 H         3.966227         1.209316        -1.062674
 H         2.081226         2.881508         1.123387
