19
Iteration:   693
 C         4.631987        -0.458710         1.739529
 C         3.389751        -0.213929         0.871818
 C         2.212018        -1.192559         0.765529
 C         1.384760         0.003971        -0.005107
 C        -0.096291        -0.009156        -0.099191
 O         2.129340         0.049387        -1.262326
 C         3.280178         0.632400        -0.416928
 C         2.385418         1.005396         0.729312
 O         2.273015         2.030671         1.652131
 H         5.121180        -1.404051         1.438455
 H         5.279011         0.294483         1.625046
 H         4.289379        -0.539101         2.771389
 H         2.327664        -2.107226         0.153585
 H         1.783245        -1.450163         1.716390
 H        -0.656199        -0.170809         0.788827
 H        -0.342561         0.825199        -0.793493
 H        -0.235134        -0.850388        -0.783590
 H         4.096437         1.123633        -0.998661
 H         2.500763         3.048827         1.319170
