19
Iteration:  1690
 C         4.606967        -0.351152         1.639263
 C         3.393360        -0.215152         0.883313
 C         2.265604        -1.204485         0.734949
 C         1.435840        -0.108253         0.064806
 C        -0.040882         0.133196        -0.217385
 O         2.119545         0.066889        -1.134736
 C         3.210087         0.621192        -0.493248
 C         2.408954         0.915256         0.814091
 O         2.239743         1.908399         1.672927
 H         5.066383        -1.381069         1.434905
 H         5.313051         0.411896         1.360491
 H         4.567374        -0.164551         2.726467
 H         2.360482        -2.139239         0.099689
 H         2.062343        -1.305408         1.836363
 H        -0.682380         0.255582         0.670659
 H        -0.213394         1.120809        -0.626804
 H        -0.476104        -0.545668        -0.943686
 H         3.980489         1.149325        -0.992392
 H         1.771597         2.755458         1.212714
