19
Iteration:  4737
 C         4.632448        -0.237725         1.602114
 C         3.245493        -0.220141         0.951786
 C         2.179121        -1.223885         0.754099
 C         1.387789        -0.022226         0.042748
 C        -0.090764        -0.003299        -0.105237
 O         2.258438         0.045543        -1.242023
 C         3.182969         0.623193        -0.483148
 C         2.454633         0.924991         0.708791
 O         2.295360         1.935791         1.721864
 H         5.489815        -0.955081         1.199020
 H         5.029419         0.695644         1.372023
 H         4.396835        -0.514026         2.677006
 H         2.606664        -2.089547         0.308170
 H         1.552348        -1.530644         1.667214
 H        -0.589727        -0.031718         0.913063
 H        -0.184119         0.908989        -0.781945
 H        -0.467517        -0.974262        -0.546395
 H         3.876119         1.201986        -0.929569
 H         2.387162         2.750344         1.285485
