19
Iteration:  3509
 C         4.599849        -0.415151         1.688094
 C         3.347530        -0.159798         0.916516
 C         2.226062        -1.207002         0.826809
 C         1.402531        -0.132042         0.033770
 C        -0.180833        -0.018522        -0.161307
 O         2.181621         0.021316        -1.199148
 C         3.196994         0.732232        -0.507942
 C         2.447953         0.999606         0.671147
 O         2.354076         2.027898         1.664112
 H         5.240485        -1.189517         1.126574
 H         5.092610         0.491541         1.876956
 H         4.346904        -0.708104         2.762689
 H         2.546621        -2.120038         0.437476
 H         1.776063        -1.359782         1.799905
 H        -0.644492        -0.270842         0.790242
 H        -0.426098         0.906203        -0.723402
 H        -0.352527        -0.850079        -0.764800
 H         4.081423         1.035453        -0.945199
 H         2.146640         2.944919         1.088250
