19
Iteration:  1625charge 0 multiplicity 1
 C         4.615161        -0.404814         1.712491
 C         3.358325        -0.317945         0.868441
 C         2.139178        -1.217080         0.763289
 C         1.351586        -0.004355         0.097072
 C        -0.075287        -0.140100        -0.168568
 O         2.170380         0.238687        -1.242423
 C         3.209429         0.604155        -0.468273
 C         2.441199         1.003998         0.773011
 O         2.332901         2.015259         1.652999
 H         5.220890        -1.283643         1.240462
 H         5.241404         0.473803         1.435704
 H         4.450632        -0.353554         2.796997
 H         2.231768        -2.090904         0.115811
 H         1.759734        -1.396490         1.801815
 H        -0.505502        -0.302039         0.828200
 H        -0.342255         0.787300        -0.624519
 H        -0.196586        -0.914947        -0.896196
 H         4.139558         1.043484        -0.848598
 H         2.328441         2.949423         1.147081
