19
Iteration:  4021
 C         4.653597        -0.406117         1.654247
 C         3.404050        -0.182691         0.911215
 C         2.150376        -1.176053         0.740102
 C         1.395175        -0.098906         0.013839
 C        -0.048974         0.005473        -0.091200
 O         2.165241         0.027077        -1.253262
 C         3.245645         0.601409        -0.358221
 C         2.449967         0.908325         0.871457
 O         2.221282         2.115704         1.518220
 H         5.252342        -1.076460         1.026638
 H         5.171377         0.528384         1.762689
 H         4.484791        -0.722222         2.711353
 H         2.164259        -2.195282         0.252886
 H         1.951152        -1.512267         1.835737
 H        -0.423641         0.077900         0.967368
 H        -0.435746         0.921683        -0.599409
 H        -0.504963        -0.796909        -0.725917
 H         4.136163         1.131504        -0.836734
 H         1.880402         2.800388         0.959648
