19
Iteration:  3545charge 0 multiplicity 1
 C         4.629355        -0.393181         1.602044
 C         3.304341        -0.264156         0.860079
 C         2.147822        -1.171724         0.873245
 C         1.471262         0.018145         0.077758
 C        -0.005806        -0.016570        -0.115912
 O         2.184650         0.036060        -1.214636
 C         3.264998         0.610662        -0.512505
 C         2.485659         1.046992         0.721101
 O         2.193896         1.997321         1.673941
 H         5.246563        -1.280477         1.247904
 H         5.305572         0.509481         1.491902
 H         4.503201        -0.610362         2.662055
 H         2.194263        -2.143020         0.396019
 H         1.561593        -1.171305         1.769867
 H        -0.711878         0.121300         0.789272
 H        -0.504673         0.720015        -0.806946
 H        -0.200721        -1.064579        -0.638361
 H         4.227487         0.881509        -1.081636
 H         1.611819         2.800961         1.247014
