19
Iteration:  2377
 C         4.601007        -0.370792         1.678363
 C         3.357748        -0.209527         0.889156
 C         2.210079        -1.154305         0.812865
 C         1.445711        -0.064575         0.121621
 C        -0.061277        -0.023894        -0.112392
 O         2.138453         0.154170        -1.247370
 C         3.268834         0.562774        -0.470807
 C         2.440555         0.978061         0.727145
 O         2.238121         1.968635         1.597819
 H         5.103981        -1.331606         1.419178
 H         5.197179         0.468496         1.737947
 H         4.395995        -0.736960         2.745093
 H         2.337775        -2.104219         0.387802
 H         1.774342        -1.327271         1.773936
 H        -0.704331         0.064949         0.794441
 H        -0.301199         0.858720        -0.722399
 H        -0.485283        -0.789927        -0.816345
 H         4.060161         0.847403        -1.115287
 H         2.302672         2.734168         0.930701
