19
Iteration:  3068charge 0 multiplicity 1
 C         4.552667        -0.402547         1.695643
 C         3.355133        -0.201299         0.861916
 C         2.114288        -1.156125         0.854614
 C         1.434208        -0.041710         0.083172
 C        -0.081112        -0.098324        -0.107873
 O         2.180853         0.062648        -1.214148
 C         3.297689         0.697270        -0.571097
 C         2.480772         1.023193         0.676820
 O         2.284084         1.988736         1.638270
 H         5.174766        -1.225358         1.376504
 H         5.175353         0.401572         1.589528
 H         4.173657        -0.521844         2.764671
 H         2.104571        -2.149888         0.463494
 H         1.828088        -1.185784         1.919507
 H        -0.343544        -0.649391         0.796753
 H        -0.511168         0.864934        -0.157230
 H        -0.427950        -0.758063        -0.968549
 H         4.161702         1.084064        -1.123121
 H         2.242176         2.733210         1.124328
