19
Iteration:  1944
 C         4.648779        -0.439655         1.636159
 C         3.275401        -0.271484         0.986933
 C         2.123408        -1.254549         0.660478
 C         1.423228         0.021107         0.000415
 C        -0.102741        -0.069754         0.014906
 O         2.234470         0.159123        -1.217433
 C         3.327454         0.558905        -0.377089
 C         2.488076         0.990676         0.750353
 O         2.193656         2.104338         1.503656
 H         5.321680        -1.069108         1.041972
 H         5.061151         0.589040         1.950269
 H         4.493344        -0.935908         2.530994
 H         2.351632        -2.173144         0.107811
 H         1.562299        -1.446395         1.624326
 H        -0.300510         0.009505         1.094205
 H        -0.563443         0.824361        -0.360206
 H        -0.319673        -1.108464        -0.275322
 H         4.042430         1.236717        -0.704944
 H         2.156054         2.699096         0.833194
