19
Iteration:  4346charge 0 multiplicity 1
 C         4.634328        -0.289477         1.738953
 C         3.308804        -0.231470         0.889992
 C         2.182585        -1.238211         0.732776
 C         1.454034        -0.069612        -0.021199
 C        -0.060727        -0.022994        -0.068375
 O         2.126629         0.075291        -1.269465
 C         3.227314         0.579303        -0.440146
 C         2.420574         0.924801         0.795451
 O         2.332027         2.019754         1.620919
 H         5.398487        -0.997982         1.308592
 H         5.143912         0.760070         1.477276
 H         4.524671        -0.292502         2.843196
 H         2.179717        -2.185618         0.107395
 H         1.554793        -1.558821         1.567474
 H        -0.325745         0.241003         1.029654
 H        -0.358870         0.865340        -0.716523
 H        -0.586862        -0.796213        -0.726899
 H         4.197133         1.006733        -0.756018
 H         1.792012         2.861714         1.205414
