19
Iteration:  3607
 C         4.556154        -0.393879         1.641097
 C         3.384988        -0.197461         0.896793
 C         2.277973        -1.255599         0.686681
 C         1.414123        -0.137971         0.125105
 C        -0.062857         0.067183        -0.007289
 O         2.162312         0.039594        -1.161138
 C         3.214580         0.659713        -0.406941
 C         2.480961         0.962644         0.755026
 O         2.168515         2.062631         1.478495
 H         5.092436        -1.343070         1.336917
 H         5.235496         0.371219         1.536131
 H         4.204516        -0.503332         2.727423
 H         2.550234        -2.013245        -0.066609
 H         1.687187        -1.750323         1.519729
 H        -0.540917         0.050305         0.937835
 H        -0.093500         0.975004        -0.571300
 H        -0.459903        -0.709643        -0.527548
 H         4.107270         1.133087        -0.891611
 H         2.585698         2.956649         1.128852
