19
Iteration:   413charge 0 multiplicity 1
 C         4.458850        -0.354300         1.740539
 C         3.294907        -0.309797         0.861141
 C         2.282608        -1.319833         0.610359
 C         1.415033        -0.063906         0.048558
 C        -0.087735         0.057273        -0.001454
 O         2.181289         0.034158        -1.235290
 C         3.304909         0.627101        -0.366594
 C         2.403809         0.976363         0.796814
 O         2.311435         2.127660         1.542840
 H         5.177093        -1.068605         1.363210
 H         5.060185         0.626321         1.668340
 H         4.272655        -0.665929         2.764854
 H         2.448336        -2.143652        -0.089819
 H         1.812519        -1.640732         1.630318
 H        -0.580689        -0.023558         0.974940
 H        -0.371406         1.033982        -0.505648
 H        -0.508515        -0.697567        -0.726697
 H         4.147861         1.057730        -0.885161
 H         2.646877         2.835798         1.104381
