19
Iteration:   383charge 0 multiplicity 1
 C         4.588083        -0.535691         1.891233
 C         3.384153        -0.314021         0.881863
 C         2.229028        -1.258656         0.725235
 C         1.460682         0.039931         0.044900
 C        -0.026334         0.048835         0.102747
 O         2.184144         0.201148        -1.304927
 C         3.242631         0.628755        -0.511970
 C         2.485617         0.963106         0.724825
 O         2.085960         2.038985         1.380930
 H         5.273254        -1.256836         1.321560
 H         5.194846         0.362933         2.198270
 H         4.353771        -0.923498         2.931538
 H         2.209590        -2.225514         0.288096
 H         1.666618        -1.359776         1.615173
 H        -0.477253        -0.115798         1.094484
 H        -0.434396         1.001068        -0.233006
 H        -0.310324        -0.839233        -0.489245
 H         3.992463         1.103102        -1.105244
 H         2.696796         2.808503         1.333101
