19
Iteration:  3327charge 0 multiplicity 1
 C         4.676316        -0.311529         1.738882
 C         3.426206        -0.270750         0.909998
 C         2.140280        -1.153585         0.743173
 C         1.396034        -0.079176         0.042691
 C        -0.077914         0.001570        -0.153562
 O         2.100617         0.040110        -1.252618
 C         3.226732         0.598506        -0.416998
 C         2.425115         0.924006         0.756976
 O         2.254777         2.064114         1.633973
 H         5.462307        -0.962225         1.206707
 H         5.299296         0.691568         1.759057
 H         4.517083        -0.804048         2.709750
 H         2.291296        -2.125432         0.100472
 H         1.784100        -1.572623         1.723277
 H        -0.657962         0.012809         0.772047
 H        -0.345739         0.806412        -0.811831
 H        -0.522888        -0.874930        -0.621092
 H         4.035359         1.117460        -0.925087
 H         2.749084         2.793367         1.026589
