19
Iteration:  3952
 C         4.603848        -0.355783         1.746977
 C         3.357248        -0.317752         0.902637
 C         2.195708        -1.259935         0.702047
 C         1.419943        -0.091042         0.091765
 C        -0.175141         0.002088         0.008311
 O         2.207363         0.117521        -1.275650
 C         3.300379         0.651133        -0.429010
 C         2.494693         0.961989         0.699031
 O         2.189407         2.060402         1.528468
 H         5.147332        -1.176692         1.474322
 H         5.234216         0.579197         1.499038
 H         4.450423        -0.260613         2.758139
 H         2.263030        -2.206510         0.003300
 H         1.843760        -1.622313         1.667036
 H        -0.394710         0.102282         1.050331
 H        -0.561647         0.859781        -0.559580
 H        -0.520790        -0.941226        -0.490318
 H         4.207813         1.082397        -0.741432
 H         2.477490         2.906410         1.120635
