19
Iteration:  1024
 C         4.596172        -0.394705         1.675987
 C         3.361616        -0.220853         0.851739
 C         2.163009        -1.167064         0.774987
 C         1.384068        -0.067492         0.047947
 C        -0.037202        -0.041084        -0.184971
 O         2.180918         0.163630        -1.240733
 C         3.214919         0.583745        -0.458205
 C         2.391526         0.976266         0.757714
 O         2.310307         1.955803         1.701480
 H         5.029208        -1.434796         1.487037
 H         5.566080         0.196540         1.420217
 H         4.478430        -0.252022         2.771795
 H         2.154142        -2.154998         0.362377
 H         1.882715        -1.073491         1.857472
 H        -0.529228        -0.141661         0.782709
 H        -0.350347         0.944340        -0.558053
 H        -0.504592        -0.723588        -0.897672
 H         4.108238         1.002077        -0.946170
 H         2.273512         2.957932         1.258394
