19
Iteration:  4553
 C         4.670102        -0.285317         1.624308
 C         3.331477        -0.227692         0.871090
 C         2.180875        -1.262976         0.825176
 C         1.424498        -0.081132         0.016939
 C        -0.074007         0.004532        -0.186027
 O         2.108251         0.090754        -1.239216
 C         3.296512         0.565632        -0.460824
 C         2.486718         0.979852         0.790741
 O         2.250428         2.029093         1.693054
 H         5.555858        -0.831657         1.210001
 H         5.159320         0.685572         1.534437
 H         4.428336        -0.612340         2.678621
 H         2.270383        -2.300637         0.277512
 H         1.645249        -1.599647         1.754332
 H        -0.387794         0.215514         0.856431
 H        -0.341310         0.829276        -0.845724
 H        -0.695778        -0.829041        -0.445645
 H         4.121526         0.965227        -0.957266
 H         1.571801         2.504465         1.392004
