19
Iteration:  1343
 C         4.679430        -0.353973         1.554786
 C         3.350880        -0.286673         1.001745
 C         2.071456        -1.213740         0.667310
 C         1.391468        -0.030101         0.002591
 C        -0.110033         0.083443        -0.152676
 O         2.322642         0.043436        -1.244933
 C         3.246676         0.563894        -0.401094
 C         2.456272         0.941030         0.808098
 O         2.167835         2.035694         1.719552
 H         5.273783        -0.776154         0.738516
 H         5.181336         0.657736         1.822973
 H         4.848594        -0.949195         2.411785
 H         2.180614        -2.132657         0.095265
 H         1.615870        -1.476694         1.732915
 H        -0.533192         0.026944         0.886596
 H        -0.444521         1.095952        -0.521770
 H        -0.682468        -0.743265        -0.654291
 H         4.218594         0.915788        -0.662259
 H         2.317912         2.923745         1.282764
