19
Iteration:  4801charge 0 multiplicity 1
 C         4.662658        -0.498549         1.656185
 C         3.399760        -0.153195         0.922185
 C         2.217088        -1.134517         0.709318
 C         1.426329        -0.078653         0.039919
 C        -0.018570        -0.108043        -0.008902
 O         2.145934         0.157334        -1.226304
 C         3.210276         0.709265        -0.428021
 C         2.441598         0.941621         0.769880
 O         2.181993         2.046184         1.520319
 H         5.107339        -1.496155         1.461711
 H         5.352835         0.276187         1.973674
 H         4.282894        -0.989097         2.585154
 H         2.486296        -1.912179         0.023655
 H         1.773957        -1.515262         1.725280
 H        -0.566732         0.154588         0.972085
 H        -0.357673         0.672464        -0.735187
 H        -0.497402        -1.065422        -0.346686
 H         4.123808         1.033788        -0.788238
 H         1.836788         2.718059         0.985274
