19
Iteration:  4143charge 0 multiplicity 1
 C         4.561540        -0.310115         1.749876
 C         3.338675        -0.247222         0.907812
 C         2.148521        -1.332084         0.634927
 C         1.432809        -0.137621         0.028491
 C        -0.048538        -0.013514         0.053164
 O         2.226812         0.146108        -1.266921
 C         3.206667         0.612966        -0.426052
 C         2.450260         0.971040         0.781387
 O         2.331888         2.092315         1.496661
 H         5.118549        -1.207749         1.433117
 H         5.138996         0.525792         1.739217
 H         4.315855        -0.410577         2.847961
 H         2.363832        -2.207059         0.028494
 H         1.650254        -1.454675         1.657722
 H        -0.399063         0.024314         1.099989
 H        -0.383700         0.843574        -0.544699
 H        -0.519201        -0.818211        -0.473458
 H         4.029772         1.085871        -0.887974
 H         1.533208         2.544099         1.153930
