19
Iteration:   973
 C         4.727090        -0.335220         1.589633
 C         3.341313        -0.279882         0.909091
 C         2.130048        -1.308561         0.782960
 C         1.424558         0.000859         0.023080
 C        -0.090926         0.120855        -0.180149
 O         2.152795         0.086093        -1.173674
 C         3.297939         0.563354        -0.343512
 C         2.392670         0.864920         0.804846
 O         2.259597         2.056686         1.629330
 H         5.353275        -0.912013         0.985023
 H         5.286789         0.613703         1.631388
 H         4.763825        -0.756643         2.556556
 H         2.238772        -2.206213         0.103988
 H         1.459206        -1.527703         1.673222
 H        -0.804491         0.260134         0.609777
 H        -0.180452         0.995896        -0.919124
 H        -0.440999        -0.694865        -0.883248
 H         4.153502         1.075275        -0.707197
 H         1.759544         2.608426         1.129669
