19
Iteration:   870charge 0 multiplicity 1
 C         4.657108        -0.401235         1.711721
 C         3.368726        -0.259926         0.988461
 C         2.148586        -1.228165         0.636865
 C         1.394958        -0.057865        -0.005191
 C        -0.106615        -0.042816        -0.113615
 O         2.166665         0.173191        -1.241847
 C         3.202659         0.691077        -0.359476
 C         2.457486         0.895683         0.814049
 O         2.368430         2.054390         1.552145
 H         4.995013        -1.413815         1.504165
 H         5.379029         0.359601         1.577649
 H         4.417096        -0.413175         2.767654
 H         2.175437        -2.225212         0.123544
 H         1.550052        -1.419402         1.621364
 H        -0.672992        -0.046248         0.881088
 H        -0.380818         0.915046        -0.505848
 H        -0.409176        -0.864041        -0.767127
 H         4.067693         1.041562        -0.923538
 H         1.708964         2.527982         1.173333
