19
Iteration:  4985charge 0 multiplicity 1
 C         4.707567        -0.424845         1.681950
 C         3.387332        -0.197950         0.918484
 C         2.341954        -1.271297         0.686493
 C         1.396680        -0.099776        -0.023891
 C        -0.173162        -0.013258        -0.106285
 O         2.128055         0.092210        -1.205246
 C         3.197192         0.561014        -0.391216
 C         2.389041         0.982853         0.833291
 O         2.254789         2.174821         1.599424
 H         5.229438        -1.331092         1.451746
 H         5.239101         0.559851         1.695313
 H         4.437073        -0.735156         2.723703
 H         2.503755        -1.979414        -0.100757
 H         2.145756        -1.979556         1.552281
 H        -0.415492         0.422782         0.884871
 H        -0.551255         0.695974        -0.834203
 H        -0.565257        -0.980593        -0.329743
 H         4.035130         1.065853        -0.992157
 H         1.714783         2.812571         0.951411
