19
Iteration:  1684charge 0 multiplicity 1
 C         4.596074        -0.328038         1.642425
 C         3.380902        -0.205903         0.841769
 C         2.264483        -1.221196         0.770030
 C         1.401035        -0.050939         0.052588
 C        -0.028090         0.116386        -0.216640
 O         2.122654         0.024639        -1.174873
 C         3.218855         0.632682        -0.461954
 C         2.414058         0.899580         0.767014
 O         2.253099         1.943078         1.721400
 H         4.914682        -1.331419         1.406916
 H         5.411834         0.356750         1.189422
 H         4.661425        -0.267397         2.733731
 H         2.442229        -2.153182         0.278840
 H         1.865027        -1.432188         1.772092
 H        -0.722520         0.134097         0.634922
 H        -0.117140         1.158977        -0.634495
 H        -0.448576        -0.623639        -0.924417
 H         4.074027         1.199665        -0.895874
 H         1.796113         2.616341         1.449112
