19
Iteration:   657charge 0 multiplicity 1
 C         4.646590        -0.304772         1.550837
 C         3.259624        -0.310579         0.985789
 C         2.056404        -1.289988         0.792114
 C         1.454019        -0.101233         0.010828
 C        -0.037594         0.009783        -0.247948
 O         2.150059         0.066279        -1.185132
 C         3.217903         0.685179        -0.354572
 C         2.411100         0.945724         0.799937
 O         2.425933         2.051354         1.669787
 H         5.343851        -1.081513         1.339358
 H         5.079133         0.589514         1.159461
 H         4.729956        -0.036367         2.611603
 H         2.177227        -2.282846         0.193726
 H         1.517245        -1.433616         1.738315
 H        -0.849041         0.128841         0.483497
 H        -0.191915         0.918558        -0.846941
 H        -0.208675        -0.837223        -0.927850
 H         4.183493         1.033757        -0.670154
 H         1.768539         2.763262         1.222178
