19
Iteration:  3847
 C         4.596094        -0.343967         1.613864
 C         3.333708        -0.299500         0.924852
 C         2.176464        -1.249407         0.773932
 C         1.397347        -0.025327         0.012253
 C        -0.087453        -0.049433        -0.117502
 O         2.201274         0.016479        -1.250070
 C         3.220107         0.650099        -0.413627
 C         2.488398         0.994747         0.784615
 O         2.295125         2.123845         1.640291
 H         5.411206        -1.007287         1.151048
 H         5.010017         0.624060         1.568806
 H         4.477690        -0.794295         2.665680
 H         2.307181        -2.183156         0.301967
 H         1.617296        -1.473998         1.713494
 H        -0.601281        -0.187101         0.849078
 H        -0.389810         0.979820        -0.370341
 H        -0.507603        -0.814585        -0.773473
 H         4.152244         0.922524        -0.789303
 H         1.946648         2.822635         0.991898
