19
Iteration:  1918charge 0 multiplicity 1
 C         4.565470        -0.495449         1.738844
 C         3.341856        -0.176300         0.875522
 C         2.255230        -1.249522         0.685391
 C         1.465459        -0.136094         0.039264
 C        -0.046969         0.012607         0.006259
 O         2.165966         0.084791        -1.238568
 C         3.251063         0.644121        -0.433801
 C         2.383651         1.020797         0.697195
 O         2.244071         2.108955         1.568305
 H         5.121997        -1.359354         1.248437
 H         5.128054         0.377467         1.871990
 H         4.234834        -0.862399         2.792669
 H         2.523399        -1.987712        -0.036698
 H         1.821361        -1.655463         1.538937
 H        -0.336042         0.104210         1.117576
 H        -0.148655         1.067237        -0.259069
 H        -0.507174        -0.920801        -0.381321
 H         4.144485         1.251987        -0.841884
 H         1.726689         2.705290         0.857388
