19
Iteration:   874
 C         4.611859        -0.445475         1.754561
 C         3.350461        -0.292873         0.962509
 C         2.177848        -1.220175         0.637375
 C         1.401718        -0.025380        -0.004624
 C        -0.080802        -0.049094        -0.087509
 O         2.163027         0.187079        -1.215084
 C         3.224304         0.723568        -0.382947
 C         2.419095         0.827810         0.801447
 O         2.369993         2.080510         1.533242
 H         5.165983        -1.339187         1.481837
 H         5.366935         0.428803         1.539526
 H         4.517994        -0.436650         2.840825
 H         2.271533        -2.174218         0.119230
 H         1.615366        -1.427186         1.614202
 H        -0.554526        -0.067341         0.899681
 H        -0.383608         0.956437        -0.514446
 H        -0.467282        -0.884270        -0.759274
 H         3.986638         1.035873        -1.114610
 H         1.563742         2.668864         1.125242
