19
Iteration:  2747charge 0 multiplicity 1
 C         4.602180        -0.475077         1.681197
 C         3.328412        -0.261801         0.962520
 C         2.215030        -1.222135         0.744634
 C         1.437982        -0.063082         0.055449
 C        -0.041652         0.019571         0.045363
 O         2.244424         0.110666        -1.266655
 C         3.248504         0.633708        -0.397598
 C         2.434785         0.921548         0.765120
 O         2.119469         2.115860         1.466990
 H         5.388253        -0.916818         0.957561
 H         5.120558         0.549872         1.873784
 H         4.506182        -1.252980         2.451326
 H         2.378489        -2.070372        -0.007753
 H         1.573673        -1.296397         1.696654
 H        -0.498157         0.211809         1.021792
 H        -0.357205         0.732348        -0.747010
 H        -0.394274        -0.891754        -0.387648
 H         4.035240         1.086943        -0.870567
 H         2.575666         2.850980         1.018622
