19
Iteration:   263
 C         4.562299        -0.324709         1.695279
 C         3.384415        -0.287279         0.745992
 C         2.105557        -1.174646         0.740837
 C         1.403991        -0.006901         0.033826
 C        -0.197890        -0.087135        -0.144231
 O         2.176408        -0.013633        -1.152968
 C         3.340959         0.619777        -0.398741
 C         2.436953         0.989224         0.715137
 O         2.447047         2.138573         1.587300
 H         5.345681        -1.115645         1.647867
 H         5.089924         0.649193         1.729726
 H         4.134495        -0.347675         2.725994
 H         1.922353        -2.207831         0.184603
 H         1.837576        -1.357036         1.782274
 H        -0.686953        -0.289490         0.801096
 H        -0.509020         0.920961        -0.483792
 H        -0.562335        -0.780328        -0.914939
 H         4.102670         1.155670        -0.997561
 H         1.785533         1.895846         2.400865
