19
Iteration:  3708
 C         4.754461        -0.326909         1.587849
 C         3.337836        -0.248197         0.988947
 C         2.236746        -1.345037         0.809036
 C         1.352356        -0.083432         0.072106
 C        -0.158939         0.046736        -0.241859
 O         2.138127         0.096588        -1.153173
 C         3.177751         0.611434        -0.344939
 C         2.389740         0.920993         0.817535
 O         2.346366         2.103463         1.517898
 H         5.306879        -1.212826         1.146571
 H         5.338004         0.593045         1.481275
 H         4.598632        -0.596447         2.645096
 H         2.477250        -2.247310         0.206116
 H         1.740469        -1.690572         1.755731
 H        -0.782117         0.026893         0.714361
 H        -0.301381         1.035590        -0.690452
 H        -0.258489        -0.725597        -0.901263
 H         3.997327         1.132896        -0.789720
 H         1.909660         2.835844         0.831629
