19
Iteration:  2560
 C         4.668828        -0.480880         1.732475
 C         3.342808        -0.290911         0.906906
 C         2.167216        -1.276005         0.801855
 C         1.484063        -0.039904         0.036584
 C        -0.041656        -0.006144        -0.048541
 O         2.113383         0.143853        -1.237000
 C         3.277677         0.623362        -0.454842
 C         2.465264         1.009344         0.759620
 O         2.209520         2.126625         1.505475
 H         5.425822        -1.213969         1.413761
 H         5.151376         0.502332         1.612156
 H         4.457454        -0.842456         2.758248
 H         2.280592        -2.292217         0.244278
 H         1.782384        -1.388712         1.841111
 H        -0.516549         0.171469         0.924418
 H        -0.307592         0.759353        -0.748742
 H        -0.446897        -0.736579        -0.627272
 H         4.123661         1.065502        -1.015813
 H         1.373000         2.446507         0.984246
