19
Iteration:  2367charge 0 multiplicity 1
 C         4.627797        -0.413606         1.654749
 C         3.348087        -0.229953         0.919703
 C         2.186343        -1.190207         0.841833
 C         1.356792        -0.069232         0.088517
 C        -0.115982         0.001847        -0.135133
 O         2.227675         0.084405        -1.262530
 C         3.268137         0.608602        -0.515647
 C         2.454975         0.967733         0.696668
 O         2.222882         2.034483         1.653361
 H         5.379487        -1.033236         1.102202
 H         5.222189         0.476938         1.662692
 H         4.408995        -0.610050         2.760370
 H         2.205441        -2.113417         0.277689
 H         1.706174        -1.276566         1.831783
 H        -0.552480         0.033547         0.858751
 H        -0.369051         0.907951        -0.673049
 H        -0.414270        -0.984382        -0.572186
 H         4.187129         0.972058        -0.881475
 H         2.359954         2.880205         1.262423
