19
Iteration:   912
 C         4.505567        -0.529212         1.803522
 C         3.376933        -0.222500         0.833803
 C         2.268005        -1.170071         0.614462
 C         1.450764        -0.037304         0.036304
 C        -0.058578        -0.011425         0.055933
 O         2.180210         0.132952        -1.228414
 C         3.329386         0.625196        -0.553826
 C         2.362398         0.971098         0.839769
 O         2.202706         2.081043         1.570119
 H         5.201498        -1.234337         1.204684
 H         5.013841         0.371241         2.059504
 H         4.151012        -1.084801         2.744631
 H         2.439763        -2.023187        -0.045970
 H         1.895975        -1.470281         1.566193
 H        -0.504294        -0.099112         1.073575
 H        -0.393593         0.935212        -0.325145
 H        -0.428673        -0.796744        -0.561258
 H         4.253623         0.813554        -1.079011
 H         2.287279         2.920503         0.827115
