19
Iteration:  3225charge 0 multiplicity 1
 C         4.705175        -0.411805         1.651876
 C         3.388544        -0.239824         0.925242
 C         2.112110        -1.260004         0.789484
 C         1.430374        -0.050891         0.082171
 C        -0.036782         0.034713        -0.143395
 O         2.144994         0.102793        -1.204377
 C         3.228643         0.666497        -0.414056
 C         2.433891         0.913579         0.805413
 O         2.237589         2.041721         1.544366
 H         5.310747        -1.359141         1.343560
 H         5.274425         0.454405         1.448321
 H         4.577426        -0.245711         2.717579
 H         2.149491        -2.224215         0.208025
 H         1.834915        -1.476712         1.855511
 H        -0.726325        -0.300399         0.663881
 H        -0.418225         1.001867        -0.626286
 H        -0.205486        -0.724637        -0.910107
 H         3.971091         1.250426        -0.858808
 H         1.826200         2.743498         0.854267
