19
Iteration:  3320charge 0 multiplicity 1
 C         4.692449        -0.353309         1.732057
 C         3.381679        -0.286415         0.862556
 C         2.163548        -1.224476         0.791777
 C         1.367085        -0.112925         0.058135
 C        -0.078857        -0.016282        -0.128103
 O         2.136960         0.110923        -1.272245
 C         3.194363         0.593987        -0.486503
 C         2.478456         0.967870         0.772199
 O         2.255195         2.090659         1.618564
 H         5.451602        -0.960163         1.360984
 H         5.019820         0.680836         2.048011
 H         4.322628        -0.645609         2.765994
 H         2.192247        -2.133786         0.250236
 H         1.871881        -1.441813         1.825526
 H        -0.671487        -0.087043         0.779794
 H        -0.260574         0.834542        -0.772052
 H        -0.364401        -0.930118        -0.714799
 H         3.939635         1.053396        -1.068929
 H         2.694434         2.842019         1.248186
