19
Iteration:  2084charge 0 multiplicity 1
 C         4.573647        -0.382430         1.739183
 C         3.372836        -0.240186         0.854663
 C         2.207739        -1.259385         0.663631
 C         1.445037        -0.166562        -0.014889
 C        -0.043236         0.055559         0.006128
 O         2.169939         0.038742        -1.223969
 C         3.235089         0.628639        -0.467424
 C         2.365585         0.964648         0.812267
 O         2.284973         2.152745         1.610216
 H         4.963989        -1.468233         1.508406
 H         5.359242         0.454008         1.717507
 H         4.210263        -0.435099         2.765429
 H         2.467574        -2.055976        -0.052114
 H         1.867071        -1.728732         1.613142
 H        -0.681393         0.003277         0.969596
 H        -0.122844         1.079123        -0.409391
 H        -0.603993        -0.749626        -0.670672
 H         3.978165         1.119165        -1.031813
 H         2.262367         2.775268         0.781060
