19
Iteration:   934
 C         4.618603        -0.458650         1.732309
 C         3.378948        -0.296154         0.898394
 C         2.175653        -1.217659         0.719241
 C         1.439415        -0.002360         0.014857
 C        -0.068984         0.027148         0.023666
 O         2.212787         0.068971        -1.309844
 C         3.289157         0.663967        -0.434098
 C         2.415164         1.025667         0.721566
 O         2.175117         2.024974         1.574129
 H         5.314817        -1.176890         1.138845
 H         5.110580         0.324344         2.260468
 H         4.125403        -1.174651         2.499854
 H         2.327114        -2.106490         0.106720
 H         1.724574        -1.417166         1.661773
 H        -0.472416         0.024176         1.075836
 H        -0.345386         0.981078        -0.374157
 H        -0.520331        -0.757099        -0.540080
 H         4.033435         1.281263        -0.953630
 H         2.378833         2.874708         1.269860
