19
Iteration:  1702
 C         4.712025        -0.370821         1.690748
 C         3.396011        -0.239226         0.829548
 C         2.232391        -1.272107         0.741056
 C         1.384581        -0.124473         0.118286
 C        -0.068102         0.160531        -0.154691
 O         2.131261         0.135897        -1.207098
 C         3.229142         0.651226        -0.432256
 C         2.437300         0.895009         0.772588
 O         2.177625         1.976765         1.627376
 H         5.371826        -1.321417         1.630968
 H         5.368856         0.501227         1.532422
 H         4.268376        -0.373241         2.654388
 H         2.382696        -2.166268         0.113087
 H         1.757935        -1.711706         1.691071
 H        -0.603242         0.058080         0.796160
 H        -0.024857         1.069940        -0.670684
 H        -0.471876        -0.627239        -0.762178
 H         3.981873         1.022066        -1.061714
 H         2.000933         2.603057         1.064408
