19
Iteration:  3957
 C         4.618352        -0.365556         1.749004
 C         3.349315        -0.297690         0.867582
 C         2.186560        -1.258027         0.690476
 C         1.450030        -0.064438         0.051541
 C        -0.125224         0.009035         0.026880
 O         2.171823         0.096976        -1.277241
 C         3.315880         0.621673        -0.407227
 C         2.460046         0.975360         0.711806
 O         2.171714         2.059095         1.534132
 H         5.343643        -1.288763         1.608299
 H         5.150458         0.540362         1.547465
 H         4.398270        -0.288306         2.903556
 H         2.270939        -2.025710        -0.020125
 H         1.845537        -1.526717         1.724865
 H        -0.474523         0.010498         1.100546
 H        -0.507963         0.813517        -0.613150
 H        -0.485729        -0.925712        -0.402824
 H         4.199797         1.140577        -0.889967
 H         2.557009         2.866396         1.135861
