19
Iteration:  2124charge 0 multiplicity 1
 C         4.673392        -0.474588         1.668648
 C         3.374236        -0.184596         0.913903
 C         2.114261        -1.235452         0.790122
 C         1.396378        -0.042530         0.094245
 C        -0.069964        -0.017283        -0.095080
 O         2.147613         0.152217        -1.194300
 C         3.324618         0.632164        -0.482230
 C         2.479632         0.941533         0.774107
 O         2.218118         2.054851         1.519922
 H         5.339542        -1.144155         1.187443
 H         5.175645         0.386761         1.972139
 H         4.559697        -1.009224         2.700654
 H         2.235364        -2.208086         0.127707
 H         1.635821        -1.311567         1.789916
 H        -0.572003         0.049460         0.857596
 H        -0.284541         0.850185        -0.696473
 H        -0.478234        -0.890765        -0.500296
 H         4.196962         0.990707        -1.000305
 H         1.688908         2.806557         0.879083
