19
Iteration:  4227
 C         4.675601        -0.434006         1.572028
 C         3.336135        -0.180851         0.948750
 C         2.197328        -1.157150         0.874121
 C         1.405740        -0.123337         0.078102
 C        -0.087578         0.002289        -0.191355
 O         2.204209         0.074850        -1.231184
 C         3.274211         0.579626        -0.380912
 C         2.400469         0.962632         0.787024
 O         2.155814         2.076074         1.603298
 H         5.307008        -0.928601         0.885914
 H         5.224355         0.651431         1.374134
 H         4.729936        -0.748847         2.601040
 H         2.350889        -2.109409         0.335023
 H         1.625205        -1.550203         1.711230
 H        -0.605162        -0.013144         0.852375
 H        -0.173473         1.029669        -0.654581
 H        -0.469586        -0.829992        -0.875622
 H         4.165191         0.658328        -0.896458
 H         2.513531         2.894875         0.959917
