19
Iteration:  3000
 C         4.685937        -0.290894         1.659879
 C         3.323182        -0.276119         0.910795
 C         2.126926        -1.247788         0.742543
 C         1.429006        -0.099449         0.048220
 C        -0.011313         0.047030        -0.184078
 O         2.163932        -0.004041        -1.218002
 C         3.175944         0.581700        -0.389081
 C         2.351539         0.913667         0.853516
 O         2.349563         2.119689         1.610001
 H         5.258375        -1.032853         1.220640
 H         5.247574         0.577507         1.228399
 H         4.589048        -0.326488         2.747632
 H         2.458851        -1.992460         0.039104
 H         1.702390        -1.609084         1.639368
 H        -0.501268         0.065480         0.809161
 H        -0.147500         0.980681        -0.817449
 H        -0.588802        -0.827274        -0.707312
 H         3.982998         1.188604        -0.810517
 H         1.668221         2.840871         1.176028
