19
Iteration:   550charge 0 multiplicity 1
 C         4.645040        -0.462110         1.809302
 C         3.369964        -0.329085         0.970276
 C         2.188399        -1.263194         0.559787
 C         1.473253        -0.031912         0.093782
 C        -0.057865         0.035127         0.024051
 O         2.088073         0.214449        -1.294698
 C         3.281786         0.553940        -0.305183
 C         2.466664         0.922242         0.827571
 O         2.188438         2.126137         1.381555
 H         5.380578        -1.238207         1.295051
 H         5.153905         0.513776         1.754165
 H         4.463460        -0.706932         2.920106
 H         2.464915        -2.046790        -0.152368
 H         1.742204        -1.700647         1.380667
 H        -0.560378        -0.021892         0.991721
 H        -0.365015         0.987416        -0.471507
 H        -0.433985        -0.827425        -0.556080
 H         4.214481         1.045095        -0.602142
 H         1.963221         2.710677         0.783906
