19
Iteration:  1931charge 0 multiplicity 1
 C         4.577763        -0.481486         1.696828
 C         3.318226        -0.265476         0.946161
 C         2.212473        -1.227595         0.662037
 C         1.435292        -0.060671        -0.018029
 C        -0.046242        -0.014937         0.087771
 O         2.250792         0.094771        -1.303774
 C         3.247463         0.648954        -0.421755
 C         2.409035         0.959315         0.809727
 O         2.211093         2.175765         1.544412
 H         5.319671        -1.107798         1.103307
 H         5.142892         0.452328         1.848687
 H         4.435526        -0.938732         2.666557
 H         2.408026        -2.030612        -0.011536
 H         1.723840        -1.623051         1.550304
 H        -0.364384        -0.045682         1.178121
 H        -0.566905         0.723995        -0.498055
 H        -0.575711        -0.863964        -0.445972
 H         4.236178         0.706300        -0.887544
 H         1.862638         2.968248         0.982606
