19
Iteration:  1831
 C         4.689768        -0.276895         1.594711
 C         3.281089        -0.242529         0.901610
 C         2.081168        -1.265831         0.759119
 C         1.332626        -0.100020        -0.025342
 C        -0.106370        -0.039931        -0.210755
 O         2.241812         0.063141        -1.184091
 C         3.276355         0.595101        -0.408908
 C         2.364964         1.016829         0.776409
 O         2.391940         2.037958         1.768297
 H         5.220301        -1.193996         1.191451
 H         5.215037         0.572129         1.260902
 H         4.853163        -0.217965         2.710940
 H         2.205105        -2.164322         0.146515
 H         1.472270        -1.385497         1.637793
 H        -0.799541        -0.132849         0.702192
 H        -0.499404         0.964873        -0.526110
 H        -0.340722        -0.837651        -0.995189
 H         4.150731         1.041198        -0.910563
 H         2.209967         2.751984         1.294171
