19
Iteration:  2298
 C         4.701098        -0.454283         1.747727
 C         3.424491        -0.276805         0.864919
 C         2.177022        -1.213651         0.748369
 C         1.443717        -0.089211         0.085266
 C        -0.048013         0.040968        -0.183641
 O         2.082298         0.140864        -1.194622
 C         3.192309         0.577526        -0.426304
 C         2.422014         0.944365         0.844826
 O         2.247089         2.084359         1.529632
 H         5.429178        -1.040783         1.282415
 H         5.329133         0.385532         1.740256
 H         4.589781        -0.694128         2.796743
 H         2.392690        -2.098606         0.268437
 H         1.935709        -1.390788         1.734038
 H        -0.701775         0.191656         0.760205
 H        -0.250922         0.990437        -0.752087
 H        -0.504533        -0.795657        -0.719804
 H         4.013362         1.056331        -1.063138
 H         1.602107         2.704193         0.913494
