19
Iteration:  2008
 C         4.598462        -0.356768         1.609968
 C         3.349719        -0.116853         0.906138
 C         2.238945        -1.196188         0.772431
 C         1.404543        -0.078298         0.137737
 C        -0.083508         0.047466        -0.251904
 O         2.183421        -0.043281        -1.194199
 C         3.164711         0.606686        -0.463907
 C         2.361748         1.002426         0.778869
 O         2.390766         2.009998         1.661070
 H         5.058799        -1.366125         1.225901
 H         5.310721         0.567452         1.601420
 H         4.442319        -0.567784         2.668019
 H         2.444319        -2.060210         0.233154
 H         1.685466        -1.430399         1.697137
 H        -0.907622        -0.106109         0.571296
 H        -0.319240         1.049208        -0.674105
 H        -0.499470        -0.868699        -0.926756
 H         4.080579         0.934222        -0.799646
 H         1.965927         2.737075         1.556925
