19
Iteration:  2075charge 0 multiplicity 1
 C         4.550927        -0.356615         1.739063
 C         3.349453        -0.275083         0.877630
 C         2.238652        -1.262107         0.680469
 C         1.409905        -0.131450         0.019957
 C        -0.054612         0.041693        -0.013599
 O         2.158577         0.081960        -1.205730
 C         3.241844         0.641306        -0.409966
 C         2.428158         0.967795         0.706773
 O         2.281209         2.069062         1.578935
 H         5.094475        -1.358762         1.627648
 H         5.394795         0.451263         1.535533
 H         4.309181        -0.298563         2.786513
 H         2.357871        -2.050463         0.001922
 H         1.677926        -1.566200         1.574424
 H        -0.446429        -0.119077         1.043663
 H        -0.343163         1.075194        -0.379420
 H        -0.600291        -0.696947        -0.770795
 H         4.043287         1.008383        -1.057597
 H         2.361936         2.889722         0.955648
