19
Iteration:  1485charge 0 multiplicity 1
 C         4.601919        -0.312795         1.598320
 C         3.307847        -0.238430         0.842608
 C         2.234421        -1.331292         0.774886
 C         1.387781        -0.125697         0.090803
 C        -0.028401         0.140087        -0.287517
 O         2.162712         0.111097        -1.136585
 C         3.248218         0.613406        -0.432348
 C         2.369033         0.944177         0.827226
 O         2.309133         1.976407         1.733934
 H         5.042064        -1.310919         1.461676
 H         5.396969         0.386422         1.215787
 H         4.458644        -0.030206         2.608805
 H         2.339649        -2.073260        -0.006133
 H         1.899974        -1.680672         1.829812
 H        -0.700237         0.224956         0.644469
 H        -0.054464         1.098004        -0.856913
 H        -0.531580        -0.670060        -0.915651
 H         4.146971         0.936407        -1.026966
 H         1.861194         2.700510         1.025248
