19
Iteration:  2266charge 0 multiplicity 1
 C         4.487228        -0.421046         1.730991
 C         3.305232        -0.179035         0.834027
 C         2.212067        -1.253115         0.739895
 C         1.423042        -0.062296        -0.015361
 C        -0.086969        -0.003839        -0.008055
 O         2.250090         0.056673        -1.249802
 C         3.256608         0.642468        -0.456157
 C         2.480094         1.023258         0.728761
 O         2.255515         2.058177         1.621922
 H         4.853302        -1.390685         1.371696
 H         5.200932         0.309721         1.531609
 H         4.332360        -0.477834         2.866026
 H         2.564926        -2.113816         0.234057
 H         1.904003        -1.439640         1.728814
 H        -0.306762        -0.371401         1.053601
 H        -0.487466         0.998257        -0.188120
 H        -0.487362        -0.786053        -0.638178
 H         4.061634         0.933293        -1.185630
 H         2.206264         2.806751         1.111688
