19
Iteration:  2498
 C         4.679172        -0.387617         1.590259
 C         3.325850        -0.160950         0.930286
 C         2.203834        -1.273782         0.796840
 C         1.399166        -0.090195         0.083643
 C        -0.026954         0.057050        -0.158964
 O         2.167554         0.008915        -1.206313
 C         3.212139         0.610214        -0.409788
 C         2.412964         0.973719         0.813707
 O         2.155348         2.094713         1.561673
 H         5.248418        -1.124000         0.907749
 H         5.170933         0.517815         1.858748
 H         4.719170        -0.881923         2.666540
 H         2.298154        -2.192596         0.275281
 H         1.876389        -1.533350         1.802637
 H        -0.710618         0.218003         0.732608
 H         0.014583         1.030620        -0.781871
 H        -0.471939        -0.865934        -0.794236
 H         4.160936         0.814184        -0.976600
 H         2.900289         2.877849         1.365872
