19
Iteration:  1915charge 0 multiplicity 1
 C         4.560250        -0.495372         1.737438
 C         3.339330        -0.166311         0.874493
 C         2.274992        -1.249849         0.680630
 C         1.437041        -0.128349         0.050319
 C        -0.029698         0.018911         0.006720
 O         2.152281         0.084679        -1.219136
 C         3.264339         0.645912        -0.445189
 C         2.399199         1.014199         0.693525
 O         2.238751         2.093327         1.548594
 H         5.089323        -1.333259         1.335431
 H         5.220948         0.366422         1.892390
 H         4.169407        -0.828502         2.766533
 H         2.535233        -2.106242        -0.018191
 H         1.840052        -1.668130         1.608472
 H        -0.292386         0.044589         1.048507
 H        -0.156237         1.058291        -0.381047
 H        -0.555920        -0.804233        -0.440530
 H         4.010352         1.341034        -0.838564
 H         1.796000         2.674154         1.067414
