19
Iteration:  1517charge 0 multiplicity 1
 C         4.684338        -0.415816         1.648282
 C         3.326409        -0.215364         0.902834
 C         2.176647        -1.210154         0.832561
 C         1.422389        -0.060192        -0.010357
 C        -0.046402         0.166185        -0.178476
 O         2.223628         0.013388        -1.219904
 C         3.231581         0.707664        -0.492993
 C         2.377581         0.935602         0.758232
 O         2.219060         1.930237         1.705956
 H         5.510739        -1.117905         1.195720
 H         5.201638         0.582838         1.629309
 H         4.649355        -0.740177         2.677262
 H         2.149031        -2.110902         0.277113
 H         1.703889        -1.523425         1.824795
 H        -0.510517         0.048632         0.866253
 H        -0.399894         1.107851        -0.643328
 H        -0.589669        -0.634832        -0.760757
 H         4.101747         1.063729        -1.126567
 H         1.889308         2.585886         1.257613
