19
Iteration:   376charge 0 multiplicity 1
 C         4.567485        -0.596300         1.862088
 C         3.377795        -0.274944         0.970452
 C         2.227139        -1.245532         0.778672
 C         1.508294         0.030857         0.042757
 C        -0.035749         0.052487         0.119513
 O         2.127192         0.207155        -1.334624
 C         3.284322         0.704627        -0.506718
 C         2.549787         0.919324         0.668311
 O         2.036442         2.032780         1.365435
 H         5.265168        -1.200009         1.264692
 H         5.067249         0.333805         1.913567
 H         4.374606        -1.029508         2.847968
 H         2.438667        -2.329509         0.380690
 H         1.663672        -1.287274         1.753404
 H        -0.471139        -0.073069         1.124645
 H        -0.416522         0.951148        -0.361930
 H        -0.311496        -0.740011        -0.566640
 H         4.234602         1.075031        -0.953315
 H         2.637715         2.639884         1.360496
