19
Iteration:    72charge 0 multiplicity 1
 C         4.498474        -0.319400         1.782481
 C         3.359592        -0.311931         0.879447
 C         2.198531        -1.208684         0.742278
 C         1.425472        -0.020822         0.085711
 C        -0.104665         0.016860         0.016091
 O         2.202196         0.101772        -1.244207
 C         3.222018         0.643457        -0.442882
 C         2.477210         0.884569         0.708829
 O         2.274687         2.025992         1.411619
 H         5.289565        -1.072589         1.449834
 H         5.029247         0.664070         1.668114
 H         4.270776        -0.479670         2.868065
 H         2.366590        -2.273234         0.118236
 H         1.699369        -1.471561         1.753086
 H        -0.469343        -0.178637         1.052313
 H        -0.505558         0.966133        -0.349928
 H        -0.494132        -0.809631        -0.606357
 H         4.020106         1.249066        -0.899452
 H         3.099100         2.412569         1.485097
