19
Iteration:  3102
 C         4.638383        -0.478445         1.785726
 C         3.340996        -0.224069         0.938985
 C         2.206550        -1.263865         0.666344
 C         1.454647        -0.106967         0.053595
 C        -0.054348        -0.041143        -0.027045
 O         2.135713         0.068111        -1.292315
 C         3.233126         0.661591        -0.457836
 C         2.427593         0.962037         0.755673
 O         2.285101         2.220798         1.534685
 H         5.238321        -1.326083         1.377181
 H         5.094311         0.406559         1.982203
 H         4.376541        -0.808600         2.862018
 H         2.319246        -2.032544        -0.076074
 H         1.863175        -1.600286         1.674538
 H        -0.452701        -0.170879         0.987583
 H        -0.466125         0.918765        -0.251512
 H        -0.543906        -0.768771        -0.674598
 H         4.136770         1.146491        -1.000277
 H         1.600608         2.768180         1.141526
