19
Iteration:  3252charge 0 multiplicity 1
 C         4.551151        -0.414905         1.653278
 C         3.308517        -0.191756         0.991457
 C         2.216913        -1.294554         0.681537
 C         1.432021        -0.142472        -0.003168
 C        -0.095804        -0.044316        -0.063263
 O         2.179300         0.147978        -1.184942
 C         3.250527         0.552312        -0.413549
 C         2.430590         0.991330         0.807977
 O         2.364149         2.180618         1.517871
 H         5.195706        -1.203306         1.300998
 H         5.162043         0.624545         1.627095
 H         4.359960        -0.355384         2.752836
 H         2.538644        -2.139427         0.038498
 H         1.760306        -1.764747         1.570249
 H        -0.585058        -0.512589         0.773114
 H        -0.387047         0.951320        -0.175736
 H        -0.631409        -0.552777        -0.887034
 H         4.184137         0.888997        -0.940071
 H         1.445875         2.603735         1.254101
