19
Iteration:  3652charge 0 multiplicity 1
 C         4.611983        -0.424355         1.680999
 C         3.342868        -0.267029         0.857373
 C         2.136530        -1.102828         0.834749
 C         1.409328        -0.032412         0.061798
 C        -0.123012        -0.130489        -0.006190
 O         2.209864         0.123864        -1.253677
 C         3.266704         0.652533        -0.477590
 C         2.515747         0.993545         0.714330
 O         2.191325         2.012243         1.506017
 H         5.442793        -1.095959         1.235491
 H         5.143250         0.468162         1.858823
 H         4.380194        -0.899370         2.689591
 H         2.080033        -2.118240         0.409332
 H         1.814263        -1.079673         1.943224
 H        -0.566413        -0.552551         0.930589
 H        -0.324132         0.885136        -0.300900
 H        -0.547525        -0.724879        -0.699071
 H         4.186566         1.146561        -0.990488
 H         2.903039         2.786303         1.383222
