19
Iteration:  2297
 C         4.696612        -0.459541         1.756525
 C         3.425971        -0.273337         0.855428
 C         2.173891        -1.203405         0.744721
 C         1.435920        -0.092518         0.088253
 C        -0.045393         0.039057        -0.177334
 O         2.084948         0.136162        -1.199302
 C         3.194685         0.582561        -0.414364
 C         2.423519         0.948561         0.837514
 O         2.249049         2.077849         1.529338
 H         5.409751        -1.053241         1.282995
 H         5.351907         0.410941         1.732146
 H         4.580958        -0.675677         2.770084
 H         2.388458        -2.095878         0.241694
 H         1.950149        -1.385289         1.743501
 H        -0.696905         0.169530         0.763498
 H        -0.214323         1.012572        -0.734927
 H        -0.493395        -0.812694        -0.710012
 H         3.976889         1.054738        -1.062348
 H         1.596631         2.712564         0.898706
