19
Iteration:  2751charge 0 multiplicity 1
 C         4.601860        -0.444037         1.681735
 C         3.345798        -0.239302         0.962066
 C         2.242715        -1.225705         0.729707
 C         1.427904        -0.099179         0.043430
 C        -0.055852         0.032311         0.030320
 O         2.241756         0.118452        -1.247610
 C         3.230428         0.610991        -0.375564
 C         2.401255         0.943203         0.767907
 O         2.149882         2.107440         1.452519
 H         5.191221        -0.986359         0.862924
 H         5.002777         0.467944         1.912812
 H         4.511102        -1.211014         2.509870
 H         2.326085        -2.108259         0.045457
 H         1.589156        -1.549840         1.584999
 H        -0.423099         0.256581         1.009160
 H        -0.341880         0.799787        -0.659471
 H        -0.414888        -0.943755        -0.355479
 H         4.143141         1.141947        -0.819724
 H         2.675402         2.842179         1.047190
