19
Iteration:  1089charge 0 multiplicity 1
 C         4.523755        -0.438356         1.804757
 C         3.293304        -0.254570         0.898652
 C         2.304688        -1.366628         0.606663
 C         1.404910        -0.069844         0.008210
 C        -0.105422         0.030418        -0.042890
 O         2.166901         0.151145        -1.252141
 C         3.206014         0.701201        -0.426892
 C         2.424422         0.918046         0.785289
 O         2.362528         2.110496         1.594657
 H         5.155019        -1.239092         1.190276
 H         5.334273         0.443618         1.730820
 H         4.339913        -0.715946         2.895534
 H         2.462451        -2.255531        -0.003669
 H         1.875011        -1.614437         1.589565
 H        -0.418104        -0.075566         0.986157
 H        -0.440884         0.990660        -0.398197
 H        -0.602916        -0.769344        -0.598187
 H         4.035843         1.189834        -0.871720
 H         2.028475         2.878876         0.885319
