19
Iteration:  4231
 C         4.703739        -0.422840         1.562497
 C         3.316821        -0.209951         0.968105
 C         2.178652        -1.202415         0.848549
 C         1.403596        -0.118055         0.042063
 C        -0.085496         0.002750        -0.162635
 O         2.211445         0.059301        -1.226268
 C         3.225734         0.583604        -0.362244
 C         2.446008         0.988549         0.773340
 O         2.167102         2.115698         1.604391
 H         5.417275        -1.040925         0.906077
 H         5.205347         0.602115         1.472355
 H         4.740439        -0.655261         2.695885
 H         2.384857        -2.110214         0.255526
 H         1.552399        -1.557108         1.746210
 H        -0.656533        -0.072452         0.750308
 H        -0.306903         0.943855        -0.691410
 H        -0.382248        -0.734542        -0.874745
 H         4.207346         0.770681        -0.921508
 H         2.365026         2.854255         1.074403
