19
Iteration:  2283
 C         4.612912        -0.453574         1.704342
 C         3.409424        -0.228662         0.858824
 C         2.229912        -1.193912         0.748237
 C         1.399072        -0.064816         0.108594
 C        -0.067155         0.023202        -0.057793
 O         2.159844         0.056126        -1.208625
 C         3.265938         0.679453        -0.453465
 C         2.405714         0.940635         0.725081
 O         2.251803         2.054478         1.546773
 H         5.093449        -1.437608         1.505122
 H         5.276318         0.511508         1.759679
 H         4.180675        -0.619001         2.671372
 H         2.167422        -2.105681         0.062814
 H         1.745098        -1.482305         1.742518
 H        -0.576938        -0.044706         0.877483
 H        -0.306030         0.968621        -0.614771
 H        -0.338490        -0.749846        -0.821753
 H         4.049088         1.297618        -0.784522
 H         1.915472         2.722508         1.076917
