19
Iteration:  1540
 C         4.614068        -0.426137         1.648724
 C         3.317311        -0.278014         0.826598
 C         2.136064        -1.147061         0.733315
 C         1.436636         0.019858         0.060333
 C        -0.018960         0.027075         0.001947
 O         2.186613         0.165108        -1.273317
 C         3.382332         0.504746        -0.401381
 C         2.466708         0.964476         0.745024
 O         2.136505         1.967351         1.634287
 H         5.520462        -0.846722         1.132362
 H         4.995762         0.613178         1.963397
 H         4.513428        -1.016038         2.519803
 H         2.212615        -2.141088         0.350638
 H         1.691851        -1.264626         1.792720
 H        -0.706874        -0.120050         0.899975
 H        -0.305086         0.948640        -0.542859
 H        -0.371134        -0.751202        -0.748469
 H         4.251858         1.014350        -0.865481
 H         1.874925         2.723222         0.840016
