19
Iteration:  3027
 C         4.646179        -0.185048         1.613009
 C         3.269743        -0.240968         0.917817
 C         2.189132        -1.323039         0.816346
 C         1.365363        -0.108930         0.052800
 C        -0.147265         0.024195        -0.269794
 O         2.152401         0.077174        -1.119988
 C         3.263826         0.576838        -0.384043
 C         2.428322         0.915096         0.792472
 O         2.386430         2.027635         1.621288
 H         5.100921        -1.255993         1.234883
 H         5.221721         0.557895         1.038570
 H         4.780436        -0.072137         2.760727
 H         2.545918        -2.119616         0.111192
 H         1.701126        -1.567025         1.815242
 H        -0.892292        -0.114125         0.513655
 H        -0.356369         1.036721        -0.621222
 H        -0.374940        -0.597656        -1.064422
 H         4.222846         0.842662        -0.922150
 H         2.103886         2.968839         1.153177
