19
Iteration:  4370
 C         4.690175        -0.293696         1.608885
 C         3.312034        -0.248378         0.957285
 C         2.200036        -1.249261         0.788814
 C         1.422971        -0.098185         0.107401
 C        -0.095158         0.044249        -0.164779
 O         2.174496         0.117529        -1.169007
 C         3.226351         0.600925        -0.486930
 C         2.465736         0.920414         0.771149
 O         2.247595         1.975065         1.586174
 H         5.454677        -0.924520         1.230608
 H         5.193079         0.790239         1.690322
 H         4.417856        -0.593767         2.606757
 H         2.262805        -2.232130         0.330017
 H         1.535885        -1.467755         1.646800
 H        -0.581308         0.361184         0.823399
 H        -0.226075         0.876474        -0.956510
 H        -0.604017        -0.823719        -0.690939
 H         4.129365         1.063109        -0.963284
 H         1.859264         2.610768         1.123007
