19
Iteration:  1555
 C         4.607056        -0.466214         1.703911
 C         3.371620        -0.320487         0.896030
 C         2.151473        -1.240520         0.736962
 C         1.472910         0.001179        -0.012786
 C        -0.017703         0.004428        -0.026918
 O         2.184401         0.201982        -1.258471
 C         3.274618         0.571551        -0.460727
 C         2.426924         0.942880         0.798190
 O         2.185123         2.100112         1.579568
 H         5.401003        -0.725244         1.083059
 H         4.923314         0.499572         2.127942
 H         4.375660        -1.140109         2.577066
 H         2.249207        -2.119594        -0.017817
 H         1.674493        -1.426786         1.678773
 H        -0.142715        -0.212426         1.028497
 H        -0.578600         0.901021        -0.385626
 H        -0.437015        -0.908209        -0.526165
 H         4.173775         0.833916        -0.953129
 H         1.865222         2.815902         1.122916
