19
Iteration:  4427
 C         4.654193        -0.486619         1.594824
 C         3.302553        -0.204066         0.996872
 C         2.268947        -1.216504         0.803718
 C         1.429176        -0.048915         0.013308
 C        -0.069206        -0.053628        -0.103919
 O         2.167848         0.123430        -1.184533
 C         3.308551         0.642318        -0.450369
 C         2.377207         0.956151         0.723970
 O         2.189420         2.093337         1.564613
 H         5.183143        -1.265077         1.077739
 H         5.199685         0.469959         1.754335
 H         4.540237        -0.792723         2.613907
 H         2.412261        -2.094501         0.267350
 H         1.821876        -1.235304         1.793159
 H        -0.391269        -0.207278         0.925697
 H        -0.557245         0.914199        -0.411867
 H        -0.423277        -0.941564        -0.670470
 H         4.191418         1.021513        -0.860631
 H         1.906478         2.860249         0.980404
