19
Iteration:   140charge 0 multiplicity 1
 C         4.788404        -0.491533         1.532313
 C         3.369445        -0.235186         0.958412
 C         2.101441        -1.130356         0.994484
 C         1.408874        -0.122999         0.040622
 C        -0.030239         0.134021        -0.218253
 O         2.268890         0.046137        -1.183245
 C         3.211161         0.688250        -0.434257
 C         2.352005         0.891026         0.750604
 O         2.162856         2.004733         1.540955
 H         5.231549        -1.354013         1.051779
 H         5.531399         0.335607         1.155143
 H         4.936919        -0.665938         2.614666
 H         2.077927        -2.366553         0.738319
 H         1.557416        -0.821728         1.979428
 H        -0.513110         0.318103         0.766510
 H        -0.024494         1.030234        -0.857459
 H        -0.551440        -0.710736        -0.702426
 H         4.007904         1.300417        -0.816032
 H         1.285084         2.575747         1.352351
