19
Iteration:  1586
 C         4.533088        -0.515939         1.757055
 C         3.339935        -0.210186         0.895150
 C         2.331017        -1.227776         0.649013
 C         1.393767        -0.073934         0.094741
 C        -0.102591        -0.028681        -0.080812
 O         2.189107         0.149983        -1.244316
 C         3.182251         0.678248        -0.356717
 C         2.325954         0.913419         0.786161
 O         2.388986         2.111307         1.524528
 H         5.315493        -0.939130         1.186336
 H         5.128017         0.383726         2.082467
 H         4.365297        -1.207404         2.584547
 H         2.600142        -1.959590        -0.142626
 H         1.992377        -1.786864         1.555050
 H        -0.602640        -0.159007         0.923104
 H        -0.505915         0.928880        -0.547764
 H        -0.683075        -0.861390        -0.581751
 H         3.898397         1.283007        -0.824493
 H         2.063493         2.979080         0.839692
