19
Iteration:  4349charge 0 multiplicity 1
 C         4.653778        -0.297098         1.749855
 C         3.315330        -0.243840         0.908946
 C         2.169241        -1.257665         0.754339
 C         1.454805        -0.056593        -0.016499
 C        -0.051837        -0.003794        -0.070219
 O         2.113644         0.074775        -1.300353
 C         3.214725         0.592019        -0.432139
 C         2.427538         0.899873         0.786079
 O         2.323609         2.021747         1.620550
 H         5.298516        -0.915893         1.238280
 H         5.126769         0.772225         1.499185
 H         4.653222        -0.257926         2.807168
 H         2.209741        -2.118320         0.101642
 H         1.610530        -1.588592         1.667769
 H        -0.350965         0.280139         0.981672
 H        -0.398937         0.833690        -0.800930
 H        -0.467018        -0.789819        -0.755022
 H         4.189069         1.058019        -0.771713
 H         1.789463         2.838402         1.237173
