19
Iteration:  2662
 C         4.634826        -0.250381         1.627962
 C         3.341278        -0.290013         0.898710
 C         2.164989        -1.215156         0.784812
 C         1.421350        -0.101484         0.077624
 C        -0.111029         0.040281        -0.236586
 O         2.144199         0.063386        -1.217526
 C         3.243441         0.559711        -0.351599
 C         2.426740         0.945830         0.823346
 O         2.336576         2.043475         1.610855
 H         5.193503        -1.213906         1.359399
 H         5.193907         0.624689         1.388516
 H         4.631725        -0.263031         2.796392
 H         2.219783        -2.168534         0.210964
 H         1.801582        -1.705474         1.706504
 H        -0.736604        -0.148577         0.621735
 H        -0.434186         1.031753        -0.601188
 H        -0.438023        -0.739515        -0.933237
 H         4.094200         1.023513        -0.728150
 H         2.182272         2.840946         0.891840
