19
Iteration:   292
 C         4.687941        -0.388154         1.582466
 C         3.321239        -0.278517         1.088664
 C         2.141533        -1.180087         0.942468
 C         1.466171        -0.052455         0.008312
 C         0.049314         0.036511        -0.224329
 O         2.097385         0.128180        -1.313177
 C         3.165515         0.537947        -0.429562
 C         2.387009         0.947417         0.785513
 O         2.272636         2.070300         1.502149
 H         5.218971        -1.263552         1.246138
 H         5.288393         0.595912         1.392459
 H         4.638440        -0.391294         2.688951
 H         2.324129        -2.061827         0.441237
 H         1.526117        -1.447314         1.831577
 H        -0.489645         0.148993         0.730797
 H        -0.079282         1.049703        -0.676988
 H        -0.373555        -0.785870        -0.825865
 H         4.036776         1.081976        -0.814071
 H         2.218486         1.688800         2.402074
