19
Iteration:  1316charge 0 multiplicity 1
 C         4.617282        -0.382019         1.576726
 C         3.370479        -0.218710         0.885279
 C         2.155118        -1.227384         0.831456
 C         1.433190        -0.046093         0.016765
 C         0.005301         0.113068        -0.215530
 O         2.175493         0.084929        -1.189874
 C         3.243711         0.578189        -0.407491
 C         2.421183         0.966003         0.745788
 O         2.203936         1.932524         1.704403
 H         5.173939        -1.191142         1.041717
 H         5.170970         0.508851         1.632576
 H         4.579971        -0.791523         2.624635
 H         2.370213        -2.084636         0.139027
 H         1.838077        -1.538612         1.792573
 H        -0.525094         0.174515         0.748318
 H        -0.226424         1.101888        -0.626139
 H        -0.491451        -0.674054        -0.792534
 H         4.043801         1.207807        -0.858621
 H         1.897300         2.864681         1.366624
