19
Iteration:  4576
 C         4.663852        -0.374826         1.613533
 C         3.315640        -0.174998         0.897347
 C         2.271741        -1.226037         0.715808
 C         1.425884        -0.088131         0.105473
 C        -0.074607         0.030240        -0.115188
 O         2.206694         0.023963        -1.200819
 C         3.200805         0.676071        -0.359517
 C         2.361584         0.964622         0.749717
 O         2.251799         1.982794         1.609624
 H         5.463268        -0.938205         1.078113
 H         5.164501         0.608213         1.490702
 H         4.539537        -0.772128         2.645583
 H         2.052459        -2.198974         0.134695
 H         1.688367        -1.414945         1.628143
 H        -0.554524         0.283436         0.820779
 H        -0.239983         0.777034        -0.922595
 H        -0.575840        -0.887792        -0.381871
 H         3.989923         1.190004        -0.758610
 H         2.018139         2.816264         0.935922
