19
Iteration:  1891charge 0 multiplicity 1
 C         4.592748        -0.424063         1.804966
 C         3.444313        -0.225574         0.765992
 C         2.293438        -1.197389         0.753348
 C         1.408345        -0.078439         0.099754
 C        -0.103176         0.081742        -0.079961
 O         2.111354         0.105766        -1.243918
 C         3.196630         0.695884        -0.514715
 C         2.470404         0.902094         0.767733
 O         2.245969         1.973370         1.608304
 H         5.112830        -1.353258         1.689242
 H         5.363530         0.434290         1.661337
 H         4.191202        -0.394980         2.817380
 H         2.359536        -2.212497         0.208799
 H         1.841128        -1.445352         1.808003
 H        -0.595358        -0.104884         0.839544
 H        -0.238000         1.064458        -0.566257
 H        -0.411138        -0.727653        -0.768820
 H         4.065603         1.080039        -0.974086
 H         1.820342         2.601677         0.780599
