19
Iteration:   497charge 0 multiplicity 1
 C         4.691157        -0.454532         1.633929
 C         3.363085        -0.149381         0.888684
 C         2.111328        -1.098650         0.874091
 C         1.435493        -0.034908        -0.013151
 C        -0.085483        -0.016670        -0.258124
 O         2.202060         0.015699        -1.245235
 C         3.271195         0.569144        -0.472756
 C         2.343562         1.007192         0.764276
 O         2.269510         2.005844         1.745906
 H         5.033434        -1.426357         1.190334
 H         5.430572         0.375103         1.614323
 H         4.458176        -0.558501         2.712165
 H         2.351180        -2.072273         0.441999
 H         1.632334        -1.236398         1.835621
 H        -0.477303        -0.079468         0.744269
 H        -0.535896         0.933637        -0.607906
 H        -0.423796        -0.926346        -0.747980
 H         3.980906         1.099356        -1.093030
 H         2.300532         2.937718         1.389546
