19
Iteration:  2667charge 0 multiplicity 1
 C         4.621290        -0.317825         1.631349
 C         3.360451        -0.236527         0.906171
 C         2.163283        -1.239569         0.767173
 C         1.408207        -0.131468         0.072937
 C        -0.080456         0.046903        -0.234069
 O         2.141886         0.033143        -1.208389
 C         3.240858         0.562482        -0.338892
 C         2.397044         0.953510         0.806297
 O         2.335159         2.076817         1.614519
 H         5.293415        -1.044739         1.244099
 H         5.254259         0.625607         1.446541
 H         4.672918        -0.245141         2.660669
 H         2.248309        -2.096119         0.094824
 H         1.688734        -1.420777         1.755483
 H        -0.741326        -0.126203         0.666381
 H        -0.282318         1.063719        -0.591015
 H        -0.450638        -0.765189        -0.926480
 H         4.149278         1.109999        -0.779956
 H         2.064850         2.742571         1.097552
