19
Iteration:  2877charge 0 multiplicity 1
 C         4.695894        -0.318072         1.660576
 C         3.348138        -0.289887         0.889453
 C         2.156262        -1.260591         0.807338
 C         1.387789        -0.084947         0.094962
 C        -0.099371        -0.003384        -0.187251
 O         2.126978         0.113355        -1.222207
 C         3.254654         0.587662        -0.430641
 C         2.447005         0.941325         0.825804
 O         2.295691         2.087770         1.607595
 H         5.223811        -1.193308         1.216756
 H         5.289482         0.716917         1.325859
 H         4.458801        -0.330699         2.720319
 H         2.272917        -2.235283         0.343722
 H         1.563373        -1.554139         1.707951
 H        -0.835608        -0.360176         0.673216
 H        -0.259818         1.091579        -0.626434
 H        -0.154231        -0.709096        -1.089776
 H         4.115290         1.015724        -0.873921
 H         2.136970         2.734444         1.012503
