19
Iteration:  3305charge 0 multiplicity 1
 C         4.473665        -0.386105         1.732644
 C         3.398938        -0.262117         0.799053
 C         2.229570        -1.262425         0.844753
 C         1.472299        -0.058529         0.117169
 C        -0.064472        -0.086672        -0.125888
 O         2.088105         0.160905        -1.212568
 C         3.258100         0.655711        -0.504644
 C         2.482284         0.977931         0.706542
 O         2.275136         2.065171         1.571587
 H         5.424286        -0.964728         1.357338
 H         5.011634         0.681752         1.812878
 H         4.179653        -0.945222         2.623557
 H         2.356719        -2.381738         0.503037
 H         1.673476        -1.274110         1.833086
 H        -0.589353        -0.263548         0.821387
 H        -0.450881         0.853875        -0.465535
 H        -0.446553        -0.822340        -0.813707
 H         4.227958         0.983285        -0.950295
 H         2.652251         2.844880         1.186731
