19
Iteration:  1269charge 0 multiplicity 1
 C         4.557603        -0.436395         1.756534
 C         3.344951        -0.178828         0.919920
 C         2.222097        -1.228998         0.583523
 C         1.401613        -0.030760         0.026433
 C        -0.069112        -0.020323        -0.085414
 O         2.149395         0.184499        -1.236692
 C         3.289896         0.597448        -0.449389
 C         2.412332         0.936443         0.752268
 O         2.323399         1.998952         1.677337
 H         4.831907        -1.464911         1.807978
 H         5.423575         0.295894         1.423709
 H         4.535162        -0.185694         2.846829
 H         2.387716        -2.113738         0.000172
 H         1.742231        -1.477415         1.513230
 H        -0.595855        -0.152564         0.879489
 H        -0.483997         0.906569        -0.373606
 H        -0.405651        -0.832773        -0.695812
 H         4.035816         1.049361        -1.059331
 H         1.913689         2.639566         1.053680
