19
Iteration:   630charge 0 multiplicity 1
 C         4.646200        -0.347146         1.633162
 C         3.371894        -0.248885         0.889432
 C         2.124193        -1.184391         0.829688
 C         1.414325        -0.038652         0.042738
 C        -0.141310         0.019306        -0.234170
 O         2.154002         0.118508        -1.190513
 C         3.278829         0.518001        -0.416675
 C         2.430963         0.935123         0.793894
 O         2.348904         2.005989         1.649911
 H         5.416134        -1.077830         1.216596
 H         5.204784         0.723198         1.481566
 H         4.584050        -0.498428         2.738676
 H         2.204990        -2.114396         0.305750
 H         1.759517        -1.302016         1.890560
 H        -0.954592        -0.037620         0.522549
 H        -0.323579         0.959034        -0.813840
 H        -0.330747        -0.741906        -1.018373
 H         4.169631         0.961702        -0.893575
 H         1.584981         2.552389         1.261285
