19
Iteration:  3627charge 0 multiplicity 1
 C         4.629892        -0.466349         1.767557
 C         3.396722        -0.219734         0.854080
 C         2.230886        -1.204696         0.777591
 C         1.425124        -0.032619         0.056083
 C        -0.009269         0.012781         0.006796
 O         2.101172         0.112043        -1.284076
 C         3.268726         0.575374        -0.533710
 C         2.426180         0.966194         0.712551
 O         2.117833         2.094352         1.566939
 H         5.269906        -1.260934         1.377151
 H         5.293402         0.387652         1.882100
 H         4.379936        -0.712738         2.848974
 H         2.296563        -2.177637         0.194651
 H         1.969766        -1.371623         1.890937
 H        -0.364408        -0.335205         0.972922
 H        -0.476685         0.921880        -0.381892
 H        -0.393097        -0.881087        -0.615807
 H         4.079505         1.007413        -1.114721
 H         2.869158         2.813384         1.213184
