19
Iteration:  3515charge 0 multiplicity 1
 C         4.619897        -0.416985         1.710841
 C         3.344526        -0.145260         0.869547
 C         2.253398        -1.131885         0.825144
 C         1.436137        -0.100280         0.011013
 C        -0.186365        -0.025746        -0.167462
 O         2.190071        -0.009002        -1.197922
 C         3.217629         0.662198        -0.520493
 C         2.392112         1.026278         0.729357
 O         2.326236         2.013575         1.681466
 H         5.181872        -1.137972         1.175723
 H         5.388540         0.455132         1.732968
 H         4.254250        -0.910543         2.606102
 H         2.491445        -2.216301         0.460962
 H         1.693737        -1.170260         1.808488
 H        -0.653255        -0.200370         0.819749
 H        -0.390837         0.902578        -0.690748
 H        -0.577024        -0.942695        -0.795162
 H         4.091292         1.098469        -1.113240
 H         2.191553         2.888149         1.257821
