19
Iteration:  3820
 C         4.656825        -0.288024         1.743939
 C         3.392920        -0.225570         0.975049
 C         2.189003        -1.253467         0.647407
 C         1.365344        -0.094872         0.072352
 C        -0.057333         0.011448        -0.081336
 O         2.041418         0.146906        -1.213266
 C         3.313349         0.553275        -0.331453
 C         2.366821         0.892077         0.744996
 O         2.325846         2.035994         1.489249
 H         5.235985        -1.072524         1.293406
 H         5.377968         0.679272         1.576879
 H         4.556766        -0.610989         2.753453
 H         2.426112        -2.056438        -0.136584
 H         1.738570        -1.693213         1.538423
 H        -0.647498         0.003092         0.852278
 H        -0.158209         0.983775        -0.608273
 H        -0.611614        -0.803441        -0.630663
 H         4.294770         1.019884        -0.706332
 H         2.041939         2.744616         0.894958
