19
Iteration:   790
 C         4.669980        -0.346158         1.627562
 C         3.421716        -0.261695         0.882308
 C         2.120798        -1.200233         0.825353
 C         1.398003        -0.115595         0.009242
 C        -0.059662         0.095813        -0.169535
 O         2.138442         0.128332        -1.225622
 C         3.287336         0.586136        -0.387349
 C         2.446142         0.897834         0.817778
 O         2.169984         2.005639         1.616094
 H         5.305062        -1.133994         1.087715
 H         5.219104         0.562673         1.629962
 H         4.376347        -0.776036         2.624915
 H         2.406742        -2.215441         0.329236
 H         1.730135        -1.429141         1.794666
 H        -0.468071        -0.007465         0.798591
 H        -0.176612         1.090591        -0.669640
 H        -0.571582        -0.583306        -0.864734
 H         4.221387         0.967793        -0.894297
 H         2.462469         2.765343         1.147041
