19
Iteration:   102
 C         4.721779        -0.343528         1.646194
 C         3.344760        -0.281476         0.927079
 C         2.194331        -1.228366         0.743545
 C         1.430610        -0.051778         0.102613
 C        -0.001367         0.105146        -0.147780
 O         2.140116        -0.002304        -1.237604
 C         3.276930         0.370839        -0.475285
 C         2.394335         1.034356         0.721902
 O         2.080557         2.175199         1.711639
 H         5.198835        -1.318052         1.246439
 H         5.269951         0.481912         1.311785
 H         4.745443        -0.322675         2.758019
 H         2.404914        -2.075842         0.196308
 H         1.683615        -1.587972         1.587040
 H        -0.545151         0.253218         0.778254
 H        -0.175106         1.004900        -0.756419
 H        -0.446977        -0.706269        -0.729238
 H         4.200881         0.612742        -1.062777
 H         2.643169         2.887824         1.365401
