19
Iteration:  4095charge 0 multiplicity 1
 C         4.586575        -0.355287         1.661694
 C         3.345276        -0.202357         0.862257
 C         2.172019        -1.229661         0.883107
 C         1.419168        -0.110857         0.093876
 C        -0.037746        -0.085574        -0.122949
 O         2.120374         0.079767        -1.211831
 C         3.294186         0.664342        -0.534690
 C         2.396431         0.982300         0.692576
 O         2.281841         2.050050         1.643302
 H         4.959807        -1.315946         1.351352
 H         5.419042         0.548276         1.692432
 H         4.313955        -0.378005         2.698133
 H         2.306294        -2.146267         0.222078
 H         1.686165        -1.335966         1.886486
 H        -0.637706        -0.272816         0.804494
 H        -0.217273         0.928200        -0.563607
 H        -0.330854        -0.652875        -1.076474
 H         4.255830         1.117695        -0.982364
 H         2.552695         2.733582         1.128160
