19
Iteration:  2639
 C         4.588749        -0.239850         1.737269
 C         3.337720        -0.313803         0.919773
 C         2.147551        -1.288409         0.750024
 C         1.439165        -0.032312         0.042337
 C        -0.094210        -0.029288        -0.159436
 O         2.085867         0.183341        -1.214819
 C         3.285646         0.555619        -0.431440
 C         2.459520         0.945318         0.744970
 O         2.337964         2.000187         1.576629
 H         5.327673        -1.107974         1.791677
 H         5.162478         0.578515         1.290004
 H         4.678622         0.237717         2.783292
 H         2.115518        -2.339678         0.316805
 H         1.473024        -1.539288         1.622248
 H        -0.650709        -0.374890         0.706651
 H        -0.579264         0.926105        -0.423794
 H        -0.332924        -0.808390        -0.849347
 H         4.160270         0.914107        -0.949709
 H         2.750410         2.669120         1.172793
