19
Iteration:  3695
 C         4.716807        -0.370514         1.625255
 C         3.329108        -0.260356         0.989584
 C         2.187435        -1.242546         0.747670
 C         1.366728        -0.225150         0.122502
 C        -0.121523         0.002504        -0.219698
 O         2.139632         0.062577        -1.171945
 C         3.196734         0.617281        -0.418201
 C         2.446521         0.962078         0.841754
 O         2.297772         2.186475         1.567611
 H         5.359321        -1.034252         0.959711
 H         5.107722         0.563894         1.520178
 H         4.937627        -0.550368         2.726078
 H         2.426599        -2.028614        -0.014614
 H         1.714781        -1.679198         1.730791
 H        -0.884568        -0.124576         0.621581
 H        -0.252126         1.040660        -0.624892
 H        -0.607850        -0.532578        -0.989471
 H         4.156760         0.966310        -0.983669
 H         2.435782         2.852178         0.960251
