19
Iteration:  4380
 C         4.636021        -0.337368         1.606125
 C         3.416156        -0.231136         0.834470
 C         2.177355        -1.229274         0.819996
 C         1.406510        -0.121761         0.032278
 C        -0.080972         0.031178        -0.173896
 O         2.147311         0.069922        -1.137615
 C         3.272481         0.615946        -0.383306
 C         2.448677         0.952970         0.768525
 O         2.203835         2.004929         1.610032
 H         5.269552        -0.982027         1.002457
 H         5.083200         0.801895         1.713112
 H         4.654500        -0.649508         2.663201
 H         2.361179        -2.102578         0.151591
 H         1.845230        -1.280000         1.880580
 H        -0.683050         0.420234         0.755799
 H        -0.104129         0.972183        -0.840675
 H        -0.661545        -0.861996        -0.609284
 H         4.223601         0.868653        -0.941338
 H         1.934677         2.701204         1.112771
