19
Iteration:  3873
 C         4.658928        -0.416536         1.639321
 C         3.388199        -0.148681         0.901866
 C         2.163423        -1.137687         0.899434
 C         1.423484        -0.047915         0.019352
 C        -0.066431        -0.068588        -0.194296
 O         2.173939         0.083711        -1.193976
 C         3.233506         0.556339        -0.477480
 C         2.361034         0.992212         0.699231
 O         2.284256         2.014343         1.647889
 H         5.250125        -1.139153         1.094768
 H         5.335479         0.432733         1.755131
 H         4.414797        -0.887967         2.553998
 H         2.206707        -2.270870         0.611668
 H         1.700543        -1.181524         1.908610
 H        -0.615195        -0.303373         0.784640
 H        -0.454072         0.946046        -0.403152
 H        -0.285088        -0.805033        -0.952576
 H         3.954393         1.218538        -1.078016
 H         2.075740         2.931375         1.106630
