19
Iteration:   638
 C         4.672237        -0.268949         1.607021
 C         3.352648        -0.269741         0.899476
 C         2.064485        -1.214194         0.850192
 C         1.351373        -0.036959         0.093101
 C        -0.041124         0.015122        -0.294078
 O         2.203126         0.147075        -1.220411
 C         3.195328         0.503364        -0.397973
 C         2.430579         0.885287         0.846544
 O         2.381869         2.009509         1.623863
 H         5.190854        -1.150962         1.137861
 H         5.225932         0.594958         1.456889
 H         4.649339        -0.369753         2.705111
 H         2.104453        -2.131792         0.267071
 H         1.687941        -1.423616         1.800812
 H        -0.641853         0.022548         0.600581
 H        -0.291646         1.002014        -0.738395
 H        -0.213153        -0.864533        -0.917568
 H         3.956013         1.038804        -0.947913
 H         1.530740         2.666933         1.425793
