19
Iteration:  4765
 C         4.660239        -0.367005         1.650918
 C         3.380212        -0.255723         0.824768
 C         2.212196        -1.245330         0.710518
 C         1.407369        -0.124252         0.051216
 C        -0.105811        -0.055115        -0.107524
 O         2.151793         0.148305        -1.239916
 C         3.232903         0.632922        -0.404464
 C         2.451866         0.929194         0.840856
 O         2.251729         2.112423         1.635096
 H         5.428720        -1.010741         1.355815
 H         5.220397         0.657053         1.728227
 H         4.148415        -0.542172         2.571351
 H         2.432557        -2.190265         0.121656
 H         1.738036        -1.553292         1.649227
 H        -0.433961         0.368850         0.859517
 H        -0.204636         0.699392        -0.823225
 H        -0.659612        -0.954002        -0.325628
 H         4.253053         0.852691        -0.853393
 H         1.612757         2.586525         1.090744
