19
Iteration:  1078charge 0 multiplicity 1
 C         4.509275        -0.460020         1.725262
 C         3.324788        -0.250219         0.928794
 C         2.251193        -1.295291         0.625893
 C         1.432233        -0.119813        -0.044702
 C        -0.080005        -0.008766         0.007869
 O         2.116078         0.168697        -1.278987
 C         3.281479         0.658774        -0.404758
 C         2.410184         0.982274         0.773263
 O         2.381927         2.103902         1.602424
 H         5.086776        -1.480702         1.645394
 H         5.124448         0.543351         1.783112
 H         4.084639        -0.530904         2.794193
 H         2.604100        -2.108410        -0.035332
 H         1.866303        -1.722292         1.564879
 H        -0.478237        -0.159606         1.007337
 H        -0.413710         0.935367        -0.376254
 H        -0.465393        -0.777747        -0.666694
 H         4.131875         1.197664        -0.783163
 H         1.803851         2.921234         1.039428
