19
Iteration:   661charge 0 multiplicity 1
 C         4.620730        -0.315764         1.567787
 C         3.275814        -0.281800         0.978971
 C         2.089330        -1.281315         0.781699
 C         1.410238        -0.111249        -0.029059
 C        -0.076952         0.001419        -0.231830
 O         2.185290         0.070398        -1.160614
 C         3.215305         0.659567        -0.365985
 C         2.433351         0.949657         0.818545
 O         2.402215         2.056772         1.671004
 H         5.294646        -1.172686         1.274054
 H         5.070295         0.574854         1.133047
 H         4.763926         0.001480         2.605363
 H         2.232296        -2.177193         0.247794
 H         1.559639        -1.498275         1.684815
 H        -0.845919         0.149085         0.492057
 H        -0.141994         0.949714        -0.829580
 H        -0.236802        -0.825758        -0.927814
 H         4.150513         0.980716        -0.880376
 H         1.999832         2.791094         1.296221
