19
Iteration:  4259
 C         4.623696        -0.401141         1.648671
 C         3.354431        -0.213531         0.874502
 C         2.133956        -1.222378         0.737127
 C         1.393151        -0.078528         0.060652
 C        -0.028495        -0.059248        -0.108117
 O         2.194634         0.078972        -1.157282
 C         3.250238         0.619337        -0.345637
 C         2.397870         0.925067         0.822834
 O         2.315170         2.132244         1.507688
 H         5.139509        -1.226434         1.241352
 H         5.227528         0.573262         1.513775
 H         4.649784        -0.377244         2.691114
 H         2.235256        -1.988722        -0.052632
 H         1.704951        -1.440269         1.693484
 H        -0.678839        -0.350108         0.807927
 H        -0.512831         0.879204        -0.475228
 H        -0.340928        -0.729822        -0.968988
 H         4.040113         1.093640        -0.825333
 H         1.744087         2.612402         0.985006
