19
Iteration:   610
 C         4.593505        -0.431003         1.715139
 C         3.391091        -0.199032         0.866061
 C         2.168108        -1.203148         0.795161
 C         1.387539        -0.042883         0.036484
 C        -0.079332         0.042554        -0.169739
 O         2.161509         0.010140        -1.229731
 C         3.272343         0.630678        -0.492435
 C         2.499791         1.037087         0.716040
 O         2.233778         2.007169         1.665216
 H         5.233291        -1.154870         1.210594
 H         5.257115         0.488911         2.046717
 H         4.337961        -0.887747         2.676985
 H         2.331331        -2.179059         0.264334
 H         1.747227        -1.406881         1.873375
 H        -0.428170        -0.106917         0.896180
 H        -0.525369         1.016645        -0.346665
 H        -0.452111        -0.767129        -0.827704
 H         4.131120         0.961946        -1.112443
 H         2.104686         3.005042         1.239708
