19
Iteration:  4352charge 0 multiplicity 1
 C         4.667744        -0.276003         1.741198
 C         3.332869        -0.271857         0.945005
 C         2.147582        -1.277064         0.777154
 C         1.439363        -0.049838        -0.004126
 C        -0.040975         0.033056        -0.085038
 O         2.108359         0.078461        -1.327674
 C         3.212932         0.610094        -0.427600
 C         2.427419         0.886936         0.767503
 O         2.310200         2.027387         1.619552
 H         5.296738        -0.969695         1.137787
 H         5.055108         0.659300         1.563041
 H         4.759239        -0.283084         2.847825
 H         2.304777        -2.082622         0.067197
 H         1.717151        -1.566548         1.766649
 H        -0.446384         0.241648         0.847157
 H        -0.381720         0.779096        -0.784776
 H        -0.326510        -0.833489        -0.648904
 H         4.083622         1.079162        -0.816201
 H         1.855132         2.672926         1.272978
