19
Iteration:  2771charge 0 multiplicity 1
 C         4.635551        -0.384860         1.681785
 C         3.296560        -0.267822         0.950837
 C         2.252214        -1.343192         0.651870
 C         1.385819        -0.122555        -0.002541
 C        -0.095568         0.038558        -0.039021
 O         2.171893         0.084789        -1.193433
 C         3.253528         0.635085        -0.332446
 C         2.357561         0.932278         0.800541
 O         2.247020         2.173734         1.497902
 H         5.446087        -1.180336         1.355825
 H         5.127320         0.579833         1.670485
 H         4.365620        -0.777304         2.736765
 H         2.688626        -2.013974        -0.209433
 H         1.895344        -1.690975         1.675544
 H        -0.365759         0.214075         0.950329
 H        -0.305200         0.909079        -0.615851
 H        -0.662899        -0.763215        -0.473161
 H         4.088972         1.127248        -0.846815
 H         2.840155         2.868699         0.845798
