19
Iteration:  1818charge 0 multiplicity 1
 C         4.695232        -0.337873         1.617983
 C         3.339214        -0.216644         0.910539
 C         2.133753        -1.210944         0.754071
 C         1.407274        -0.077395         0.042664
 C        -0.094775        -0.034235        -0.276783
 O         2.105702         0.093789        -1.218545
 C         3.207400         0.615654        -0.399100
 C         2.408450         0.936909         0.844588
 O         2.374189         2.044288         1.702337
 H         5.294755        -1.135714         1.210893
 H         5.289646         0.537332         1.540423
 H         4.420115        -0.614274         2.707053
 H         2.274421        -2.204575         0.370309
 H         1.837646        -1.341257         1.735795
 H        -0.532383        -0.291795         0.694402
 H        -0.351336         0.915279        -0.811338
 H        -0.419258        -0.843829        -0.964028
 H         4.106810         0.931249        -0.843844
 H         2.100239         2.992595         1.189923
