19
Iteration:  3815charge 0 multiplicity 1
 C         4.679873        -0.296208         1.749976
 C         3.391699        -0.276131         0.974807
 C         2.214851        -1.279398         0.641698
 C         1.383575        -0.077447         0.049103
 C        -0.069105         0.000937        -0.065636
 O         2.040998         0.137673        -1.231805
 C         3.253913         0.590174        -0.363915
 C         2.428511         0.876080         0.773123
 O         2.307257         2.068175         1.500222
 H         5.288126        -1.156358         1.340188
 H         5.175087         0.578138         1.715447
 H         4.498425        -0.421607         2.873573
 H         2.389709        -2.040830        -0.102399
 H         1.672681        -1.617956         1.572233
 H        -0.599427         0.082302         0.910989
 H        -0.106672         0.914445        -0.678238
 H        -0.614920        -0.685272        -0.686575
 H         4.120100         1.033596        -0.718324
 H         2.061511         2.820841         0.861350
