19
Iteration:  2895
 C         4.729165        -0.329994         1.675290
 C         3.364493        -0.351441         0.966054
 C         2.167529        -1.275694         0.714608
 C         1.462172        -0.130433         0.027688
 C        -0.066433         0.020985        -0.167246
 O         2.115744         0.157994        -1.152259
 C         3.168221         0.593914        -0.363944
 C         2.387141         0.911966         0.858772
 O         2.296940         2.148193         1.467410
 H         5.361640        -1.202311         1.284862
 H         4.988303         0.634522         1.659201
 H         4.595044        -0.580956         2.740010
 H         2.205903        -2.109367        -0.049905
 H         1.891316        -1.782180         1.691629
 H        -0.468749         0.017966         0.844588
 H        -0.324068         0.989464        -0.535638
 H        -0.483276        -0.727557        -0.815767
 H         3.976132         1.114972        -0.807299
 H         1.966027         2.736194         0.905901
