19
Iteration:  2048charge 0 multiplicity 1
 C         4.623554        -0.249599         1.696284
 C         3.354898        -0.322329         0.875074
 C         2.111681        -1.170381         0.824162
 C         1.400963        -0.016582         0.015907
 C        -0.089273        -0.018514        -0.044829
 O         2.158420         0.193994        -1.294912
 C         3.314458         0.529434        -0.444127
 C         2.496830         0.885641         0.735819
 O         2.273123         1.955042         1.631962
 H         5.166074        -1.199574         1.642508
 H         5.333021         0.408026         1.370067
 H         4.310505        -0.103047         2.790287
 H         2.055193        -2.181626         0.201625
 H         1.493071        -1.273697         1.736299
 H        -0.519034        -0.375953         0.910377
 H        -0.545778         0.872823        -0.429380
 H        -0.241895        -0.644582        -0.869934
 H         4.160972         0.918899        -1.074763
 H         2.186991         2.800251         0.923632
