19
Iteration:  2228charge 0 multiplicity 1
 C         4.558887        -0.316890         1.769615
 C         3.358324        -0.338750         0.938157
 C         2.172329        -1.230378         0.715283
 C         1.387478        -0.008040         0.024076
 C        -0.101821        -0.013520        -0.064921
 O         2.173627         0.154132        -1.214212
 C         3.254210         0.638695        -0.496877
 C         2.464642         0.898004         0.747713
 O         2.343054         2.026336         1.542055
 H         5.174130        -1.223075         1.628373
 H         5.418170         0.380102         1.457579
 H         4.378982        -0.124280         2.770249
 H         2.052859        -2.141130         0.068674
 H         1.794278        -1.565383         1.732048
 H        -0.484780        -0.391851         0.865847
 H        -0.700750         0.897548        -0.299459
 H        -0.357415        -0.793539        -0.866332
 H         4.187451         1.086116        -0.808696
 H         2.003539         2.699947         1.099400
