19
Iteration:  3456
 C         4.593146        -0.302416         1.733260
 C         3.380278        -0.315238         0.928654
 C         2.172758        -1.300667         0.707319
 C         1.388657        -0.047166         0.085733
 C        -0.224402        -0.085037        -0.073333
 O         2.241673         0.190737        -1.228073
 C         3.247436         0.607365        -0.382208
 C         2.470146         0.901139         0.760398
 O         2.311981         2.110937         1.499901
 H         5.219835        -1.160604         1.295931
 H         5.059819         0.637608         1.650797
 H         4.569596        -0.448070         2.801777
 H         2.399331        -2.019489        -0.040445
 H         1.660640        -1.726194         1.546832
 H        -0.633273        -0.292201         0.999752
 H        -0.590275         1.023584        -0.213082
 H        -0.544264        -0.800745        -0.911436
 H         4.117467         0.968470        -0.817808
 H         2.407514         2.757485         0.713840
