19
Iteration:  2809
 C         4.561645        -0.324561         1.715404
 C         3.374418        -0.279155         0.856151
 C         2.189833        -1.190807         0.815225
 C         1.440840        -0.035264         0.021193
 C        -0.080590        -0.008878        -0.112905
 O         2.105059         0.133154        -1.174398
 C         3.292280         0.598175        -0.452501
 C         2.438155         0.924334         0.703578
 O         2.343287         1.987077         1.602274
 H         5.206772        -1.233780         1.536656
 H         5.422185         0.428091         1.392890
 H         4.341695        -0.121081         2.765846
 H         2.210594        -2.165015         0.309105
 H         1.653446        -1.300695         1.801340
 H        -0.790497        -0.434130         0.707058
 H        -0.482196         0.944126        -0.605620
 H        -0.225502        -0.762262        -0.981066
 H         4.085281         1.017572        -1.098401
 H         1.669272         2.755713         1.267517
