19
Iteration:  3807
 C         4.672490        -0.342526         1.767284
 C         3.344765        -0.340803         0.933725
 C         2.237830        -1.296587         0.674167
 C         1.452836        -0.099515         0.033207
 C        -0.097513         0.025160        -0.062931
 O         2.098392         0.137308        -1.244492
 C         3.161592         0.621163        -0.451235
 C         2.479723         0.901654         0.846488
 O         2.280049         2.102643         1.522391
 H         5.417686        -1.126655         1.554980
 H         5.124492         0.671934         1.677496
 H         4.397402        -0.343873         2.814959
 H         2.397604        -2.181457        -0.030723
 H         1.700669        -1.643657         1.606324
 H        -0.532683         0.222896         0.975159
 H        -0.338060         0.960699        -0.610882
 H        -0.470620        -0.786296        -0.657019
 H         3.957467         1.166398        -0.959413
 H         2.127978         2.853679         0.786685
