19
Iteration:  2409
 C         4.616941        -0.397099         1.810201
 C         3.368859        -0.295084         0.851070
 C         2.170514        -1.290844         0.683737
 C         1.423041        -0.091944         0.082577
 C        -0.130149        -0.016846        -0.038001
 O         2.221079         0.086692        -1.259618
 C         3.183667         0.684691        -0.466272
 C         2.480550         0.962797         0.791842
 O         2.337975         2.127025         1.532623
 H         5.018725        -1.385681         1.626100
 H         5.230790         0.385011         1.529734
 H         4.186548        -0.114481         2.807048
 H         2.358509        -2.061607         0.004951
 H         1.853414        -1.570922         1.642745
 H        -0.800776        -0.252291         0.870161
 H        -0.305630         1.057292        -0.292553
 H        -0.518059        -0.751830        -0.808497
 H         3.960138         1.139900        -1.023389
 H         1.579339         2.726535         1.183440
