19
Iteration:  3752charge 0 multiplicity 1
 C         4.646706        -0.409453         1.753058
 C         3.319715        -0.207642         0.889246
 C         2.162899        -1.215908         0.825666
 C         1.462673         0.016011        -0.016958
 C        -0.113417        -0.034979        -0.049698
 O         2.161086         0.031331        -1.285241
 C         3.299347         0.640914        -0.591411
 C         2.491513         1.080815         0.708219
 O         2.237302         2.013073         1.662407
 H         5.173349        -1.361937         1.463749
 H         5.428565         0.362308         1.557567
 H         4.441579        -0.599431         2.810395
 H         2.208169        -2.153147         0.192315
 H         1.763031        -1.479840         1.871357
 H        -0.427952        -0.090856         1.091303
 H        -0.642271         0.844875        -0.495569
 H        -0.476545        -0.958336        -0.438352
 H         4.208921         0.799229        -1.058497
 H         1.577383         2.753920         1.239933
