19
Iteration:  1010
 C         4.625826        -0.359134         1.571157
 C         3.320632        -0.189208         0.886420
 C         2.174064        -1.264350         0.785014
 C         1.426809        -0.098167         0.009678
 C        -0.062862         0.094498        -0.235244
 O         2.137888         0.043325        -1.184832
 C         3.282821         0.627961        -0.408610
 C         2.367013         0.968314         0.811905
 O         2.322582         2.017284         1.736689
 H         4.941510        -1.463609         1.296268
 H         5.284408         0.417611         1.252791
 H         4.469484        -0.334391         2.724526
 H         2.365613        -2.274390         0.338225
 H         1.699895        -1.411875         1.708872
 H        -0.729262        -0.058709         0.661468
 H        -0.265262         1.002350        -0.774131
 H        -0.167851        -0.778286        -0.844147
 H         4.151378         1.071950        -0.985053
 H         2.129118         2.759507         1.247871
