19
Iteration:  3989
 C         4.528244        -0.439366         1.748141
 C         3.370856        -0.203524         0.875490
 C         2.257862        -1.237725         0.791781
 C         1.443813        -0.098487         0.057249
 C        -0.023658         0.004068         0.018405
 O         2.147752         0.079810        -1.294943
 C         3.261407         0.665085        -0.508344
 C         2.510060         1.012121         0.697162
 O         2.131801         2.041079         1.542120
 H         5.294795        -1.220740         1.392258
 H         5.144428         0.431879         1.787438
 H         4.199436        -0.786078         2.809116
 H         2.373915        -2.137853         0.199745
 H         1.919873        -1.482133         1.870266
 H        -0.583878         0.122276         0.980845
 H        -0.384657         0.878745        -0.541270
 H        -0.529501        -0.906850        -0.335402
 H         4.167447         1.077810        -1.051269
 H         2.595563         2.922633         1.258260
