19
Iteration:  2960
 C         4.541202        -0.480366         1.742291
 C         3.413093        -0.220359         0.856136
 C         2.222609        -1.126452         0.852247
 C         1.437105        -0.005953         0.032663
 C        -0.012837        -0.034800         0.053670
 O         2.187939         0.116613        -1.310036
 C         3.291774         0.625015        -0.499180
 C         2.499220         0.979857         0.672757
 O         2.084164         2.004987         1.543579
 H         5.282965        -1.232118         1.203626
 H         5.101335         0.323675         2.057501
 H         4.407845        -1.130155         2.700985
 H         2.131747        -2.087862         0.280018
 H         1.737631        -1.216546         1.882810
 H        -0.422559         0.213859         0.994060
 H        -0.420487         0.667369        -0.572124
 H        -0.257121        -0.975110        -0.344206
 H         4.026493         1.032851        -1.088052
 H         2.208483         2.878122         1.105982
