19
Iteration:  2137charge 0 multiplicity 1
 C         4.699529        -0.439188         1.646931
 C         3.355125        -0.333280         0.928162
 C         2.106292        -1.129314         0.825102
 C         1.471767        -0.013389         0.030498
 C        -0.058525        -0.029902        -0.101009
 O         2.171409         0.157871        -1.266256
 C         3.251978         0.532165        -0.425293
 C         2.499995         0.977877         0.770646
 O         2.181278         2.089718         1.588392
 H         5.383218        -0.909516         0.900886
 H         5.127380         0.501793         1.773077
 H         4.456875        -1.023537         2.558198
 H         2.005787        -2.225418         0.408157
 H         1.633362        -1.265171         1.851128
 H        -0.452346         0.107714         0.908334
 H        -0.527317         0.698311        -0.712427
 H        -0.270755        -0.950911        -0.614512
 H         4.123775         0.904589        -0.884137
 H         1.823763         2.685603         1.049180
