19
Iteration:  1926charge 0 multiplicity 1
 C         4.564956        -0.496427         1.711970
 C         3.345028        -0.242798         0.916687
 C         2.216409        -1.223132         0.679711
 C         1.475487        -0.101428        -0.003078
 C        -0.051396        -0.016191         0.075424
 O         2.228772         0.088519        -1.299792
 C         3.237922         0.661397        -0.420596
 C         2.378831         0.977552         0.774204
 O         2.221435         2.172085         1.557337
 H         5.217925        -1.125306         1.141222
 H         5.128191         0.442696         1.832634
 H         4.424460        -0.935408         2.763306
 H         2.482641        -1.977127        -0.142965
 H         1.727837        -1.655973         1.578884
 H        -0.378283         0.038898         1.088540
 H        -0.510917         0.915296        -0.412649
 H        -0.531267        -0.851014        -0.397435
 H         4.236747         0.725298        -0.878715
 H         1.852176         2.810944         0.983902
