19
Iteration:  1194
 C         4.593269        -0.433349         1.699902
 C         3.344389        -0.282751         0.883139
 C         2.224544        -1.263108         0.717982
 C         1.425953        -0.075876         0.062338
 C        -0.036989         0.047164        -0.149782
 O         2.105453         0.148317        -1.197980
 C         3.266345         0.647071        -0.465740
 C         2.467703         0.951550         0.781305
 O         2.259195         2.087695         1.679525
 H         5.047121        -1.282922         1.193738
 H         5.405604         0.317052         1.608902
 H         4.570753        -0.798898         2.751157
 H         2.318837        -2.174893         0.043821
 H         1.784290        -1.461949         1.690335
 H        -0.878298        -0.013921         0.621162
 H        -0.228978         0.937832        -0.745686
 H        -0.197228        -0.772983        -0.882501
 H         4.081373         1.075168        -1.034725
 H         1.698313         2.576120         1.199785
