19
Iteration:  2885charge 0 multiplicity 1
 C         4.706960        -0.334552         1.673585
 C         3.361880        -0.309829         0.943227
 C         2.146653        -1.330687         0.719937
 C         1.372043        -0.094246         0.095921
 C        -0.042763         0.010083        -0.191750
 O         2.101269         0.134969        -1.217801
 C         3.205202         0.588405        -0.388655
 C         2.452613         0.902581         0.827053
 O         2.291728         2.156116         1.567961
 H         5.556109        -1.031291         1.351941
 H         5.231481         0.585623         1.481186
 H         4.683181        -0.373841         2.742448
 H         2.319606        -2.306084         0.210147
 H         1.647503        -1.325032         1.720946
 H        -0.720105        -0.208028         0.694606
 H        -0.295851         1.025052        -0.577453
 H        -0.340788        -0.722779        -0.963893
 H         4.010268         1.044654        -0.852550
 H         2.044968         2.732163         0.934677
