19
Iteration:  3258
 C         4.578878        -0.389845         1.719113
 C         3.282165        -0.235523         0.979357
 C         2.192220        -1.289178         0.676491
 C         1.404741        -0.145256        -0.049120
 C        -0.149303        -0.064078        -0.031054
 O         2.186467         0.102651        -1.215834
 C         3.278214         0.625259        -0.437713
 C         2.476383         1.004574         0.790350
 O         2.354142         2.210405         1.542304
 H         5.370689        -1.211777         1.426673
 H         5.142087         0.463888         1.569706
 H         4.400228        -0.640239         2.770708
 H         2.488796        -2.110789        -0.047918
 H         1.930513        -1.770630         1.645745
 H        -0.584929        -0.566589         0.877370
 H        -0.541389         1.041732        -0.145421
 H        -0.563044        -0.564896        -0.929920
 H         4.182195         0.921309        -0.978831
 H         1.627918         2.625486         1.310019
