19
Iteration:  4847charge 0 multiplicity 1
 C         4.633732        -0.379982         1.599005
 C         3.363104        -0.208669         0.934514
 C         2.190094        -1.158330         0.707334
 C         1.416225        -0.066946         0.088404
 C        -0.035335        -0.097651        -0.091477
 O         2.214165         0.116393        -1.205118
 C         3.186171         0.608509        -0.397426
 C         2.425828         0.952517         0.842363
 O         2.203958         2.054079         1.555268
 H         5.214302        -1.276725         1.170250
 H         5.017955         0.600779         1.468921
 H         4.719287        -0.747737         2.655504
 H         2.380258        -2.039542         0.082832
 H         1.620762        -1.441214         1.630547
 H        -0.518334        -0.373752         0.859301
 H        -0.456654         0.980472        -0.282109
 H        -0.367519        -0.786998        -0.954034
 H         4.114779         0.980761        -0.928030
 H         2.284038         2.844849         0.998518
