19
Iteration:  2703charge 0 multiplicity 1
 C         4.650013        -0.520478         1.624230
 C         3.357272        -0.130406         0.937417
 C         2.224664        -1.140567         0.866269
 C         1.396240        -0.045226         0.075694
 C        -0.071293         0.026176        -0.122985
 O         2.197551         0.019830        -1.245697
 C         3.288356         0.616616        -0.467715
 C         2.452144         0.982712         0.755583
 O         2.173873         2.062418         1.572433
 H         5.321943        -1.108788         0.925618
 H         5.022714         0.579640         1.862567
 H         4.315884        -1.265799         2.383974
 H         2.365455        -2.247976         0.403336
 H         1.756986        -1.308726         1.936879
 H        -0.531460         0.121407         0.871018
 H        -0.274164         0.912952        -0.760831
 H        -0.343950        -0.782032        -0.747206
 H         4.188820         1.045078        -0.841217
 H         1.526848         2.534706         1.208711
