19
Iteration:  4625charge 0 multiplicity 1
 C         4.669641        -0.490035         1.679440
 C         3.334873        -0.256950         0.904449
 C         2.179238        -1.178651         0.760958
 C         1.439903        -0.064042         0.035287
 C        -0.036425        -0.107490        -0.019532
 O         2.135504         0.193807        -1.177714
 C         3.285054         0.664613        -0.376167
 C         2.480925         0.993832         0.722084
 O         2.128192         2.060375         1.482528
 H         5.292306        -1.198841         1.153878
 H         5.372176         0.347005         1.623861
 H         4.451160        -0.703572         2.727198
 H         2.282492        -1.943077         0.052360
 H         1.773596        -1.677019         1.645197
 H        -0.469601        -0.274605         1.009721
 H        -0.452766         0.784964        -0.477904
 H        -0.337131        -0.980788        -0.679257
 H         4.062751         1.302129        -0.950518
 H         2.419033         2.806595         1.033165
