19
Iteration:  1235charge 0 multiplicity 1
 C         4.529840        -0.458444         1.766438
 C         3.332005        -0.232394         0.854284
 C         2.131518        -1.346295         0.600374
 C         1.418832        -0.054075        -0.003449
 C        -0.138365        -0.076511        -0.006654
 O         2.288202         0.239472        -1.243561
 C         3.287409         0.679346        -0.455838
 C         2.384693         0.930151         0.807338
 O         2.312780         2.077588         1.648402
 H         4.982329        -1.443053         1.627995
 H         5.376771         0.182309         1.191677
 H         4.261921        -0.057144         2.745141
 H         2.291769        -2.253701         0.092695
 H         1.788370        -1.411154         1.646283
 H        -0.430355        -0.349552         1.003610
 H        -0.646168         0.813775        -0.360912
 H        -0.393241        -0.853723        -0.707635
 H         3.992400         1.285225        -1.037613
 H         2.669503         2.975687         1.064921
