19
Iteration:  2735
 C         4.690288        -0.533982         1.642259
 C         3.367105        -0.296646         0.913874
 C         2.095791        -1.179758         0.782839
 C         1.483818         0.012289         0.056659
 C        -0.023986        -0.020076        -0.019869
 O         2.201546         0.095645        -1.253478
 C         3.300465         0.649368        -0.475243
 C         2.476020         0.992555         0.772594
 O         2.048715         2.095714         1.507216
 H         5.547224        -0.977637         1.092819
 H         4.934973         0.423317         2.309132
 H         4.519512        -1.057295         2.584123
 H         2.203747        -2.235247         0.382857
 H         1.770692        -1.454478         1.841530
 H        -0.452376         0.179310         1.011016
 H        -0.438781         0.838967        -0.610551
 H        -0.378828        -1.012371        -0.273454
 H         4.194492         1.063789        -0.873497
 H         2.274146         2.947222         0.882564
