19
Iteration:  2308charge 0 multiplicity 1
 C         4.736225        -0.416287         1.657091
 C         3.379729        -0.290777         0.967194
 C         2.244160        -1.313099         0.820058
 C         1.407111        -0.056814         0.056046
 C        -0.090085         0.069923        -0.208532
 O         2.085500         0.161468        -1.172271
 C         3.236143         0.582151        -0.486822
 C         2.455189         0.885023         0.828624
 O         2.233463         2.137974         1.555018
 H         5.341807        -1.147062         1.234841
 H         5.096571         0.601140         1.804406
 H         4.507503        -0.836668         2.593309
 H         2.318470        -2.213347         0.275538
 H         1.664674        -1.472323         1.682754
 H        -0.637771         0.227571         0.788521
 H        -0.319110         0.884456        -0.956269
 H        -0.451021        -0.839041        -0.721157
 H         4.188111         1.019229        -0.896541
 H         1.625628         2.725785         0.963459
