19
Iteration:  2368
 C         4.615338        -0.412251         1.655555
 C         3.349663        -0.229284         0.923434
 C         2.196968        -1.181552         0.839385
 C         1.358309        -0.071190         0.098895
 C        -0.112950        -0.000916        -0.133267
 O         2.222173         0.094387        -1.261978
 C         3.269105         0.604048        -0.515051
 C         2.453750         0.966977         0.692380
 O         2.222323         2.024585         1.653310
 H         5.399730        -1.043621         1.120741
 H         5.271562         0.475612         1.670556
 H         4.403064        -0.609384         2.756761
 H         2.203243        -2.143518         0.261953
 H         1.687696        -1.272656         1.849533
 H        -0.552186         0.042060         0.831012
 H        -0.363701         0.903906        -0.671033
 H        -0.421450        -0.970134        -0.596308
 H         4.178410         0.949061        -0.914595
 H         2.375329         2.912652         1.185833
