19
Iteration:  4866charge 0 multiplicity 1
 C         4.769685        -0.299507         1.634924
 C         3.386433        -0.295448         0.955247
 C         2.230223        -1.315471         0.824903
 C         1.405796        -0.096391         0.012102
 C        -0.143526        -0.009221        -0.189486
 O         2.065594         0.169865        -1.204764
 C         3.255782         0.599138        -0.397301
 C         2.423761         0.963195         0.790140
 O         2.255898         2.055754         1.585071
 H         5.338801        -1.210932         1.266176
 H         5.256773         0.702210         1.612680
 H         4.617382        -0.562341         2.730307
 H         2.316778        -2.208189         0.205792
 H         1.748263        -1.636862         1.848919
 H        -0.732189        -0.375968         0.672566
 H        -0.531891         1.000278        -0.420511
 H        -0.201111        -0.539717        -1.136422
 H         4.067019         1.150443        -0.869952
 H         1.895299         2.775802         0.935324
