19
Iteration:  4803charge 0 multiplicity 1
 C         4.651393        -0.496510         1.654492
 C         3.391886        -0.159147         0.912960
 C         2.231826        -1.120498         0.715067
 C         1.431232        -0.097106         0.020521
 C        -0.032631        -0.107819         0.003636
 O         2.170659         0.155525        -1.232141
 C         3.192322         0.694192        -0.422438
 C         2.450550         0.946866         0.778379
 O         2.176591         2.059006         1.538595
 H         5.140827        -1.521982         1.465619
 H         5.351421         0.246991         1.914148
 H         4.279963        -1.030905         2.576637
 H         2.467548        -1.917172         0.012841
 H         1.797823        -1.471572         1.696299
 H        -0.576257         0.076392         0.967902
 H        -0.375046         0.718945        -0.747362
 H        -0.558516        -1.072615        -0.327192
 H         4.140873         1.025839        -0.848262
 H         1.835592         2.862153         0.924193
