19
Iteration:  2140
 C         4.696179        -0.449357         1.635139
 C         3.334208        -0.351668         0.913032
 C         2.100970        -1.120103         0.845494
 C         1.477973         0.005178        -0.014495
 C        -0.052911        -0.029477        -0.078348
 O         2.184430         0.148133        -1.260066
 C         3.232922         0.515847        -0.417162
 C         2.492767         0.970337         0.771176
 O         2.185380         2.084828         1.600111
 H         5.433045        -0.898927         0.890665
 H         5.106336         0.632634         1.751937
 H         4.500062        -0.979086         2.512224
 H         2.095902        -2.123774         0.445189
 H         1.691636        -1.251214         1.871769
 H        -0.489287         0.103676         0.936333
 H        -0.524397         0.703647        -0.795448
 H        -0.219963        -0.994834        -0.696990
 H         4.199822         0.940852        -0.800781
 H         1.763719         2.911192         1.079454
