19
Iteration:  1107
 C         4.667681        -0.429996         1.702599
 C         3.384874        -0.259121         0.896580
 C         2.167117        -1.207427         0.663480
 C         1.409459        -0.106107         0.058149
 C        -0.083211         0.066448        -0.078084
 O         2.144962         0.128488        -1.217518
 C         3.228635         0.671814        -0.374447
 C         2.410109         0.897422         0.790978
 O         2.266760         2.020651         1.555978
 H         5.439936        -1.086410         1.396839
 H         4.932351         0.515994         1.970065
 H         4.259389        -0.869654         2.620639
 H         2.330597        -2.040689        -0.097141
 H         1.841795        -1.735167         1.543481
 H        -0.622954         0.104330         0.928064
 H        -0.220532         1.011269        -0.619595
 H        -0.452732        -0.770362        -0.695119
 H         4.065304         1.281204        -0.789577
 H         2.479567         2.864606         0.909181
