19
Iteration:  4676
 C         4.654280        -0.380377         1.703552
 C         3.290166        -0.200713         0.921363
 C         2.246052        -1.268251         0.700691
 C         1.395845        -0.096743         0.077469
 C        -0.052518        -0.027591        -0.108928
 O         2.150942         0.091008        -1.190060
 C         3.214434         0.675481        -0.488783
 C         2.394631         0.977998         0.768404
 O         2.303657         2.060882         1.591267
 H         5.110033        -1.221281         1.222490
 H         5.499860         0.408269         1.658877
 H         4.522391        -0.468475         2.784787
 H         2.553675        -2.286464         0.237855
 H         1.855575        -1.521674         1.676125
 H        -0.551890        -0.402876         0.735497
 H        -0.413999         1.015267        -0.188098
 H        -0.332756        -0.531996        -1.019255
 H         4.162115         1.035444        -1.058039
 H         1.464914         2.647920         1.139252
