19
Iteration:  2404charge 0 multiplicity 1
 C         4.597736        -0.405125         1.790015
 C         3.378439        -0.318273         0.849501
 C         2.212919        -1.267890         0.710014
 C         1.442504        -0.085707         0.121915
 C        -0.086448         0.005540        -0.088943
 O         2.161251         0.104281        -1.257420
 C         3.193010         0.666853        -0.468831
 C         2.452212         0.961244         0.757454
 O         2.331470         2.125432         1.557611
 H         5.061550        -1.425158         1.835814
 H         5.239979         0.561044         1.546105
 H         4.312544        -0.278522         2.832361
 H         2.275255        -2.247941         0.050734
 H         1.780866        -1.581959         1.734352
 H        -0.598156        -0.213229         0.854021
 H        -0.479321         0.984695        -0.407821
 H        -0.477203        -0.714526        -0.774682
 H         3.968714         1.246677        -1.066901
 H         1.614769         2.575354         1.028894
