19
Iteration:  4450charge 0 multiplicity 1
 C         4.671066        -0.415523         1.673485
 C         3.361147        -0.318240         0.892071
 C         2.154046        -1.221976         0.723463
 C         1.412542        -0.123119         0.092081
 C        -0.066356        -0.109029        -0.054111
 O         2.180154         0.177270        -1.255281
 C         3.234734         0.674196        -0.395121
 C         2.456714         0.919500         0.839442
 O         2.234075         2.180123         1.498416
 H         5.150257        -1.355573         1.375303
 H         5.322226         0.424112         1.693747
 H         4.434980        -0.594744         2.724461
 H         2.201718        -1.972055         0.003311
 H         1.838029        -1.429075         1.735242
 H        -0.558700        -0.397281         0.854063
 H        -0.396218         0.905230        -0.320141
 H        -0.321896        -0.843567        -0.847723
 H         4.161569         1.143703        -0.732241
 H         1.713515         2.796314         0.858715
