19
Iteration:  2287
 C         4.659887        -0.453246         1.731553
 C         3.421327        -0.234813         0.838595
 C         2.212706        -1.182622         0.745095
 C         1.358972        -0.082901         0.104487
 C        -0.048394         0.027741        -0.091527
 O         2.134271         0.074827        -1.214614
 C         3.241065         0.655210        -0.394045
 C         2.428584         0.937380         0.734089
 O         2.254429         2.049753         1.543696
 H         5.114636        -1.360793         1.440397
 H         5.175941         0.447557         1.737438
 H         4.296041        -0.664582         2.738527
 H         2.182106        -2.000500         0.108370
 H         1.842443        -1.412576         1.688507
 H        -0.598681        -0.032311         0.911408
 H        -0.118078         0.993844        -0.652706
 H        -0.318497        -0.790211        -0.769163
 H         4.024151         1.273497        -0.932515
 H         1.751817         2.809297         0.938291
