19
Iteration:  1541charge 0 multiplicity 1
 C         4.614863        -0.432156         1.648642
 C         3.319734        -0.281737         0.829712
 C         2.143528        -1.142866         0.735696
 C         1.438257         0.019717         0.055221
 C        -0.014460         0.023814         0.004712
 O         2.184338         0.170293        -1.277014
 C         3.384451         0.502147        -0.405718
 C         2.455923         0.959756         0.750166
 O         2.137565         1.977134         1.632553
 H         5.482321        -0.842117         1.159884
 H         4.949845         0.625673         1.968670
 H         4.531891        -1.027665         2.517472
 H         2.187602        -2.156850         0.326535
 H         1.693638        -1.283493         1.787893
 H        -0.692274        -0.109950         0.917145
 H        -0.327112         0.957527        -0.526659
 H        -0.343799        -0.771421        -0.752665
 H         4.245250         0.992508        -0.864993
 H         1.872735         2.731709         0.848913
