19
Iteration:  3501
 C         4.569527        -0.382744         1.681337
 C         3.321458        -0.208874         0.957566
 C         2.196325        -1.266260         0.827097
 C         1.360784        -0.123918         0.072223
 C        -0.073116        -0.047537        -0.152966
 O         2.160639         0.072274        -1.234698
 C         3.189047         0.737752        -0.501391
 C         2.467749         0.980274         0.737972
 O         2.384831         2.053757         1.594106
 H         5.332592        -1.123393         1.273038
 H         5.013403         0.618208         1.857858
 H         4.456445        -0.675678         2.711122
 H         2.397688        -2.154557         0.189808
 H         1.880467        -1.561308         1.815154
 H        -0.730869        -0.142654         0.791493
 H        -0.509482         0.920809        -0.569453
 H        -0.289225        -0.889324        -0.961356
 H         4.142364         1.088360        -0.907963
 H         2.058167         2.898219         1.080479
