19
Iteration:  2544
 C         4.665991        -0.399759         1.600066
 C         3.402524        -0.280444         0.932533
 C         2.121609        -1.179736         0.801577
 C         1.383817        -0.086275         0.101877
 C        -0.073772         0.059411        -0.075910
 O         2.245875         0.143987        -1.187745
 C         3.285464         0.589006        -0.391207
 C         2.444378         0.899211         0.755960
 O         2.163344         2.057902         1.464729
 H         5.323502        -1.136438         1.083029
 H         5.260580         0.511019         1.872051
 H         4.696645        -0.959987         2.583873
 H         2.172696        -2.110429         0.299389
 H         1.616718        -1.448999         1.729338
 H        -0.478931         0.166457         0.933187
 H        -0.418386         0.871340        -0.795262
 H        -0.488241        -0.977339        -0.491505
 H         4.212825         1.053224        -0.740870
 H         1.654699         2.845725         0.887245
