19
Iteration:  1913charge 0 multiplicity 1
 C         4.551040        -0.493546         1.740771
 C         3.342207        -0.165204         0.876193
 C         2.286552        -1.250396         0.676148
 C         1.421710        -0.120948         0.054860
 C        -0.016450         0.026069         0.009073
 O         2.146517         0.085086        -1.209944
 C         3.270161         0.649565        -0.453191
 C         2.407905         1.003665         0.698140
 O         2.241525         2.075436         1.542662
 H         5.091705        -1.335733         1.369127
 H         5.290850         0.368995         1.905330
 H         4.154089        -0.786227         2.700151
 H         2.532111        -2.149828         0.010634
 H         1.854798        -1.667315         1.662621
 H        -0.289583         0.009732         1.033964
 H        -0.196045         1.020721        -0.468517
 H        -0.604115        -0.740127        -0.507540
 H         3.930080         1.362662        -0.852279
 H         1.729782         2.818864         1.086828
