19
Iteration:  4234charge 0 multiplicity 1
 C         4.727791        -0.403156         1.557036
 C         3.306914        -0.242051         0.988674
 C         2.158159        -1.240059         0.830109
 C         1.405981        -0.106137         0.019588
 C        -0.077104         0.007954        -0.146640
 O         2.213733         0.047677        -1.216490
 C         3.206662         0.584211        -0.370942
 C         2.463069         1.011887         0.775491
 O         2.176954         2.130876         1.603620
 H         5.403469        -1.120564         0.990610
 H         5.168285         0.510424         1.576089
 H         4.736425        -0.601746         2.628425
 H         2.410402        -2.114074         0.195691
 H         1.595328        -1.487364         1.731873
 H        -0.699936        -0.116409         0.699619
 H        -0.393782         0.890308        -0.681797
 H        -0.352317        -0.742371        -0.896241
 H         4.171301         0.886699        -0.871330
 H         2.266346         2.946240         1.092124
