19
Iteration:  2164
 C         4.636126        -0.373223         1.560258
 C         3.290076        -0.205660         0.928266
 C         2.086181        -1.175051         0.815068
 C         1.436426        -0.072901         0.057464
 C        -0.109761        -0.011278        -0.150676
 O         2.272705         0.030123        -1.182502
 C         3.293127         0.601743        -0.404543
 C         2.413114         1.004608         0.725018
 O         2.276464         2.025573         1.643497
 H         5.152718        -0.945869         0.787702
 H         5.247345         0.611189         1.655346
 H         4.484387        -0.967161         2.442381
 H         2.038377        -2.105731         0.367163
 H         1.684756        -1.264797         1.807928
 H        -0.490441         0.114866         0.877130
 H        -0.537536         0.872736        -0.762098
 H        -0.463423        -0.940380        -0.721883
 H         4.228396         0.993620        -0.897702
 H         2.187211         2.778804         1.195851
