19
Iteration:  2337
 C         4.677628        -0.360812         1.525219
 C         3.290325        -0.211144         0.955268
 C         2.121085        -1.156535         0.744055
 C         1.394789        -0.079050         0.035139
 C        -0.038615         0.020266        -0.141158
 O         2.270364         0.027710        -1.167372
 C         3.267677         0.557043        -0.380273
 C         2.338249         0.909341         0.792473
 O         2.261123         2.083592         1.621479
 H         5.227381        -0.999357         0.748608
 H         4.984421         0.765201         1.710335
 H         4.645513        -0.910530         2.489960
 H         2.131119        -2.144739         0.096520
 H         1.521816        -1.307569         1.744916
 H        -0.380439         0.208558         0.836050
 H        -0.236401         0.861279        -0.803437
 H        -0.476643        -0.949901        -0.426157
 H         4.198765         0.955136        -0.679398
 H         2.127234         2.848603         1.145321
