19
Iteration:   290
 C         4.675822        -0.376055         1.596019
 C         3.304188        -0.267097         1.060416
 C         2.143917        -1.167643         0.949321
 C         1.468645        -0.059120         0.012076
 C         0.036319         0.030973        -0.224288
 O         2.113754         0.138990        -1.310897
 C         3.149276         0.528764        -0.440437
 C         2.401574         0.944861         0.777756
 O         2.293979         2.065115         1.501760
 H         5.216107        -1.244373         1.251002
 H         5.261528         0.541938         1.430151
 H         4.664791        -0.383392         2.678990
 H         2.366920        -2.124661         0.442215
 H         1.512349        -1.445171         1.843569
 H        -0.506784         0.103046         0.753270
 H        -0.122605         1.022175        -0.663503
 H        -0.387834        -0.783653        -0.823752
 H         4.024272         1.057912        -0.791109
 H         2.145969         1.639159         2.535567
