19
Iteration:  3768
 C         4.549727        -0.428738         1.721554
 C         3.418026        -0.134010         0.893162
 C         2.235287        -1.064021         0.720872
 C         1.389928        -0.024004         0.009946
 C        -0.034661        -0.000671         0.038748
 O         2.175050         0.044436        -1.265898
 C         3.269265         0.521613        -0.482057
 C         2.414248         0.959602         0.662130
 O         2.227405         1.972508         1.630635
 H         5.004528        -1.367111         1.407738
 H         5.329392         0.413384         1.723655
 H         4.234450        -0.454953         2.785205
 H         2.499049        -1.970712         0.206049
 H         1.756015        -1.202005         1.656500
 H        -0.406187        -0.075897         1.015966
 H        -0.495084         0.768772        -0.575891
 H        -0.513037        -0.935414        -0.453212
 H         4.040335         1.093588        -1.102383
 H         2.069314         2.759520         1.216935
