19
Iteration:  1309
 C         4.628318        -0.389713         1.632572
 C         3.351685        -0.232279         0.839395
 C         2.194661        -1.203926         0.760660
 C         1.422616        -0.082439         0.099258
 C         0.014822         0.109838        -0.231332
 O         2.156785         0.119004        -1.180707
 C         3.235778         0.594638        -0.461382
 C         2.426991         0.890980         0.784801
 O         2.229494         1.953753         1.687374
 H         5.123949        -1.279739         1.162945
 H         5.289085         0.504827         1.584576
 H         4.395615        -0.686335         2.635677
 H         2.212067        -2.222624         0.289771
 H         1.793263        -1.225985         1.869516
 H        -0.379917         0.160459         0.804457
 H        -0.224162         1.131227        -0.715753
 H        -0.435567        -0.706980        -0.880042
 H         3.996199         1.303590        -0.802863
 H         1.611171         2.864886         1.352183
