19
Iteration:  2891charge 0 multiplicity 1
 C         4.720856        -0.344613         1.664048
 C         3.367463        -0.338592         0.967159
 C         2.149697        -1.307905         0.705401
 C         1.436459        -0.117897         0.056514
 C        -0.049209         0.015854        -0.184354
 O         2.103822         0.151887        -1.179044
 C         3.160657         0.581169        -0.369030
 C         2.417421         0.903740         0.841956
 O         2.299002         2.152472         1.521429
 H         5.424045        -1.101649         1.419244
 H         5.128293         0.764184         1.585982
 H         4.713532        -0.515132         2.810251
 H         2.236286        -2.188796         0.057354
 H         1.845578        -1.530651         1.730952
 H        -0.574724        -0.044647         0.743183
 H        -0.357601         1.000690        -0.522180
 H        -0.434205        -0.720609        -0.892737
 H         4.066632         1.141713        -0.882319
 H         1.923557         2.881258         0.787402
