19
Iteration:  4946charge 0 multiplicity 1
 C         4.609775        -0.309115         1.641794
 C         3.336420        -0.290827         0.836097
 C         2.181148        -1.223813         0.822050
 C         1.443167         0.026887        -0.008941
 C        -0.037347        -0.025226        -0.049552
 O         2.181759         0.134976        -1.246913
 C         3.237222         0.654692        -0.472784
 C         2.469621         0.885414         0.728739
 O         2.210584         1.966936         1.616505
 H         5.418987        -1.150345         1.600291
 H         5.109786         0.662875         1.673179
 H         4.177926        -0.539162         2.672199
 H         2.410101        -2.196782         0.271284
 H         1.649811        -1.316667         1.803284
 H        -0.304728         0.027761         0.999283
 H        -0.654416         0.729726        -0.651811
 H        -0.333296        -1.124642        -0.074150
 H         4.083599         1.192443        -0.839801
 H         2.143123         2.726960         1.147540
