19
Iteration:  1302
 C         4.630831        -0.427058         1.675419
 C         3.376861        -0.261964         0.810617
 C         2.208185        -1.211494         0.729329
 C         1.426734        -0.100927         0.115668
 C        -0.019413         0.112818        -0.201624
 O         2.139773         0.138219        -1.211536
 C         3.241165         0.660787        -0.476204
 C         2.397591         0.896149         0.834964
 O         2.256738         1.977682         1.679094
 H         5.219751        -1.272102         1.363128
 H         5.400210         0.460246         1.549493
 H         4.251002        -0.462963         2.727772
 H         2.130633        -2.238918         0.463313
 H         1.795146        -1.114946         1.721252
 H        -0.613484         0.050159         0.723626
 H        -0.071293         1.001596        -0.765363
 H        -0.329758        -0.696756        -0.822659
 H         4.022593         1.223511        -0.947846
 H         1.568384         2.432516         1.143557
