19
Iteration:  4693charge 0 multiplicity 1
 C         4.629999        -0.316773         1.664428
 C         3.403195        -0.242383         0.878356
 C         2.212859        -1.200754         0.819510
 C         1.450661        -0.066349         0.107214
 C        -0.136319        -0.000114        -0.161586
 O         2.127408         0.095890        -1.240513
 C         3.220099         0.649210        -0.462846
 C         2.496964         0.890723         0.761678
 O         2.271246         1.987740         1.629403
 H         5.420623        -1.038240         1.286861
 H         5.132858         0.599075         1.470190
 H         4.262008        -0.349979         2.741757
 H         2.227107        -2.038722         0.147091
 H         1.775664        -1.583544         1.782334
 H        -0.734618        -0.469877         0.680682
 H        -0.424710         1.039425        -0.415540
 H        -0.281789        -0.665228        -1.047046
 H         4.034929         1.078801        -0.920875
 H         1.742381         2.783695         1.266493
