19
Iteration:   681
 C         4.652833        -0.355183         1.629860
 C         3.326550        -0.177130         0.908203
 C         2.195542        -1.207205         0.767531
 C         1.402266        -0.071039         0.046942
 C        -0.146407        -0.003501        -0.265116
 O         2.146092         0.055380        -1.241929
 C         3.281824         0.535981        -0.387200
 C         2.384125         0.991028         0.762876
 O         2.324151         2.048294         1.717915
 H         5.043127        -1.358212         1.413138
 H         5.405254         0.284757         1.545086
 H         4.452629        -0.360800         2.703144
 H         2.397303        -2.079547         0.064519
 H         1.871156        -1.506520         1.724401
 H        -0.587151         0.041697         0.708372
 H        -0.567918         0.974677        -0.590148
 H        -0.590077        -0.870195        -0.750615
 H         4.252075         0.998219        -0.607892
 H         2.495212         2.920451         1.111255
