19
Iteration:  3233
 C         4.635508        -0.353142         1.648878
 C         3.352850        -0.287438         0.940466
 C         2.165427        -1.257047         0.766138
 C         1.443119        -0.034462         0.078924
 C         0.006888         0.020633        -0.111732
 O         2.112847         0.119344        -1.218605
 C         3.234554         0.626996        -0.370665
 C         2.374055         0.906084         0.792735
 O         2.288984         2.069698         1.503328
 H         5.131081        -1.242317         1.331259
 H         5.380176         0.348708         1.387863
 H         4.603872        -0.489212         2.769428
 H         2.273020        -2.119931         0.172849
 H         1.877983        -1.570657         1.777287
 H        -0.630500        -0.384234         0.722233
 H        -0.338041         1.026820        -0.514707
 H        -0.144084        -0.711617        -1.012661
 H         4.069184         1.200237        -0.702562
 H         1.656527         2.719885         1.070130
