19
Iteration:  3390
 C         4.718744        -0.435302         1.690829
 C         3.391680        -0.246160         0.860499
 C         2.184891        -1.133710         0.856578
 C         1.427202        -0.015648         0.079818
 C        -0.084654         0.074401        -0.130169
 O         2.170102         0.076711        -1.190208
 C         3.294206         0.622878        -0.442367
 C         2.446913         0.938287         0.723618
 O         2.152594         1.969728         1.528764
 H         5.094466        -1.355044         1.185691
 H         5.383137         0.334552         1.553570
 H         4.635443        -0.531712         2.735956
 H         2.291282        -1.994813         0.201621
 H         1.670821        -1.377657         1.781680
 H        -0.536160         0.124021         0.921136
 H        -0.414269         0.927683        -0.852725
 H        -0.407161        -0.927910        -0.534293
 H         4.174209         1.138655        -0.873089
 H         1.258612         2.521405         1.289453
