19
Iteration:  4893
 C         4.603975        -0.249581         1.623726
 C         3.332538        -0.255070         0.866315
 C         2.232275        -1.215570         0.754059
 C         1.412967        -0.118232         0.087029
 C        -0.044636         0.017052        -0.171585
 O         2.124095         0.001688        -1.197301
 C         3.215185         0.667082        -0.440541
 C         2.419590         0.892388         0.813095
 O         2.342911         2.041254         1.656901
 H         5.201766        -1.107666         1.322316
 H         4.995353         0.748980         1.441981
 H         4.549999        -0.508443         2.679492
 H         2.217204        -2.186997         0.188357
 H         1.990006        -1.363342         1.751197
 H        -0.718404        -0.314529         0.636079
 H        -0.279758         1.103705        -0.372842
 H        -0.169188        -0.502748        -1.168080
 H         3.962932         1.296225        -0.926694
 H         1.577463         2.544057         1.207344
