19
Iteration:  4039charge 0 multiplicity 1
 C         4.654181        -0.368029         1.566395
 C         3.250127        -0.306527         0.974134
 C         2.182317        -1.266033         0.805908
 C         1.451391        -0.070689         0.105610
 C         0.022756        -0.000945        -0.151303
 O         2.174148         0.090525        -1.163406
 C         3.229033         0.552681        -0.402574
 C         2.422921         0.985026         0.748329
 O         2.254880         2.176129         1.569447
 H         5.322539        -1.014145         1.032820
 H         5.218414         0.665018         1.505237
 H         4.673272        -0.693798         2.574468
 H         2.331901        -2.199162         0.177316
 H         1.505872        -1.600595         1.543007
 H        -0.657011        -0.088710         0.678959
 H        -0.398080         0.907124        -0.615727
 H        -0.299508        -0.863237        -0.807799
 H         4.138940         0.872033        -0.899676
 H         1.607304         2.706833         1.057501
