19
Iteration:  1962charge 0 multiplicity 1
 C         4.676029        -0.407423         1.636486
 C         3.348995        -0.318131         0.894428
 C         2.128113        -1.178814         0.789810
 C         1.378548        -0.048516         0.039727
 C        -0.063891        -0.049952        -0.069821
 O         2.195048         0.204744        -1.219685
 C         3.285300         0.623023        -0.356421
 C         2.386834         0.923705         0.820322
 O         2.236838         2.067515         1.475914
 H         5.401985        -1.023943         0.987669
 H         4.983282         0.586244         1.839422
 H         4.651043        -1.005738         2.639729
 H         2.085878        -2.083377         0.171379
 H         1.706990        -1.409501         1.737040
 H        -0.607619        -0.022791         0.948484
 H        -0.292863         0.839010        -0.723836
 H        -0.246204        -1.115119        -0.464705
 H         4.316871         0.838130        -0.798146
 H         2.266381         2.780097         0.999768
