19
Iteration:  4364
 C         4.696123        -0.246883         1.646155
 C         3.319900        -0.294881         1.007079
 C         2.168680        -1.262066         0.783908
 C         1.412903        -0.074135         0.086719
 C        -0.062803         0.077049        -0.153800
 O         2.150653         0.109536        -1.259675
 C         3.226980         0.612623        -0.475383
 C         2.433842         0.917794         0.761746
 O         2.281924         1.978448         1.608105
 H         5.485837        -1.010867         1.289215
 H         5.122867         0.657168         1.579253
 H         4.523887        -0.666270         2.693489
 H         2.337885        -2.250536         0.280987
 H         1.673892        -1.559371         1.737358
 H        -0.617104         0.162793         0.737499
 H        -0.259190         0.825759        -0.854718
 H        -0.419417        -0.887869        -0.459204
 H         4.004416         1.115995        -0.974971
 H         1.738011         2.709558         1.013402
