19
Iteration:  4532
 C         4.623196        -0.239918         1.678106
 C         3.361267        -0.272050         0.855488
 C         2.150990        -1.141221         0.756501
 C         1.402401        -0.046057         0.068745
 C        -0.063324         0.003626        -0.082150
 O         2.178590         0.099169        -1.229375
 C         3.263634         0.575377        -0.493702
 C         2.426343         0.922156         0.734794
 O         2.288303         1.939054         1.662993
 H         5.383501        -0.918635         1.252149
 H         5.247634         0.655826         1.487965
 H         4.421706        -0.492501         2.739688
 H         2.272374        -2.240352         0.441982
 H         1.762397        -1.405193         1.744823
 H        -0.758056        -0.062023         0.760449
 H        -0.301201         0.803447        -0.797234
 H        -0.295905        -0.848832        -0.715221
 H         4.098995         0.868087        -1.041389
 H         1.585720         2.663511         1.468949
