19
Iteration:  3953charge 0 multiplicity 1
 C         4.607648        -0.361039         1.748911
 C         3.353364        -0.315659         0.894607
 C         2.193966        -1.257899         0.699169
 C         1.428728        -0.087403         0.085128
 C        -0.167975         0.005711         0.014285
 O         2.198367         0.112502        -1.277677
 C         3.306212         0.647174        -0.422674
 C         2.489809         0.966255         0.698707
 O         2.183505         2.057058         1.531511
 H         5.181399        -1.187941         1.507612
 H         5.220697         0.588129         1.508639
 H         4.445868        -0.260126         2.785637
 H         2.260986        -2.179269        -0.018069
 H         1.848765        -1.603562         1.693720
 H        -0.398559         0.079755         1.052156
 H        -0.554255         0.845632        -0.577373
 H        -0.514606        -0.949847        -0.482070
 H         4.195824         1.092019        -0.763129
 H         2.517653         2.953885         1.101411
