19
Iteration:   527
 C         4.572361        -0.448101         1.655843
 C         3.327026        -0.284680         0.938449
 C         2.183892        -1.296623         0.683048
 C         1.461419        -0.084980         0.079471
 C        -0.057837         0.042791        -0.104161
 O         2.225192         0.169876        -1.170621
 C         3.260445         0.632415        -0.381221
 C         2.394428         0.923275         0.829799
 O         2.256387         2.119990         1.502549
 H         5.183507        -1.374463         1.278023
 H         5.211127         0.410302         1.482665
 H         4.408243        -0.525109         2.796694
 H         2.515023        -2.188457         0.117872
 H         1.700961        -1.616480         1.555795
 H        -0.535777         0.039573         0.905748
 H        -0.377512         0.974300        -0.600047
 H        -0.489117        -0.852870        -0.583201
 H         4.070251         1.110833        -0.976343
 H         1.768700         2.838450         0.793152
