19
Iteration:  3612
 C         4.548296        -0.414301         1.677333
 C         3.386993        -0.195694         0.894717
 C         2.279806        -1.239485         0.710071
 C         1.444741        -0.089599         0.131228
 C        -0.048975         0.030116         0.021122
 O         2.146576         0.058004        -1.192958
 C         3.216317         0.624679        -0.435641
 C         2.455578         0.990470         0.735717
 O         2.167949         2.048798         1.477586
 H         5.050708        -1.321301         1.339862
 H         5.309725         0.456925         1.520986
 H         4.155999        -0.626704         2.644393
 H         2.537933        -2.014833        -0.021880
 H         1.777332        -1.680137         1.544453
 H        -0.600091         0.128777         1.009770
 H        -0.090934         1.020216        -0.512421
 H        -0.381033        -0.812929        -0.767681
 H         4.078306         1.097686        -0.882844
 H         2.588779         2.827752         1.249516
