19
Iteration:   745charge 0 multiplicity 1
 C         4.582840        -0.508502         1.804492
 C         3.379425        -0.235914         0.975516
 C         2.255930        -1.223651         0.606114
 C         1.394312        -0.047826        -0.009671
 C        -0.091459         0.011774         0.075124
 O         2.212579         0.170626        -1.257411
 C         3.287175         0.552492        -0.453947
 C         2.423743         0.924109         0.765791
 O         2.230610         2.133947         1.457571
 H         5.299408        -1.186942         1.272615
 H         5.051927         0.505092         1.977048
 H         4.258714        -0.995485         2.754621
 H         2.356136        -2.062420        -0.220884
 H         1.791176        -1.636207         1.482928
 H        -0.211947        -0.047510         1.140576
 H        -0.358342         1.060909        -0.237123
 H        -0.712196        -0.722176        -0.454131
 H         4.144221         1.178899        -0.749059
 H         1.370487         2.626858         1.154323
