19
Iteration:  1696
 C         4.677012        -0.385170         1.657318
 C         3.374297        -0.211875         0.872364
 C         2.250115        -1.221030         0.730341
 C         1.429255        -0.149226         0.108253
 C        -0.067200         0.158445        -0.190575
 O         2.129639         0.111220        -1.158203
 C         3.213943         0.627695        -0.463053
 C         2.417706         0.919666         0.809583
 O         2.212542         1.917782         1.648652
 H         5.233925        -1.266313         1.552360
 H         5.361743         0.489679         1.425484
 H         4.263623        -0.195005         2.707923
 H         2.321333        -2.108116         0.082704
 H         1.993712        -1.454473         1.743194
 H        -0.580483         0.115518         0.784661
 H        -0.115007         1.152737        -0.770012
 H        -0.494120        -0.589933        -0.921454
 H         3.962302         1.093077        -1.190970
 H         1.893257         2.688126         0.949343
