19
Iteration:  2584charge 0 multiplicity 1
 C         4.550180        -0.456569         1.778243
 C         3.377263        -0.123048         0.856442
 C         2.243563        -1.185781         0.730542
 C         1.462283        -0.076723         0.089256
 C        -0.069985        -0.049054        -0.025197
 O         2.161558         0.064160        -1.235824
 C         3.237563         0.601346        -0.502472
 C         2.405495         1.006450         0.738876
 O         2.324526         2.073219         1.542297
 H         4.935549        -1.519419         1.667017
 H         5.325236         0.226427         1.662662
 H         3.963989        -0.517109         2.778505
 H         2.428393        -1.965049        -0.069379
 H         1.762620        -1.546779         1.683826
 H        -0.487627        -0.039548         0.996133
 H        -0.373936         0.906380        -0.518130
 H        -0.559073        -0.684195        -0.737913
 H         4.042136         1.131649        -1.103046
 H         1.576540         2.473395         1.238230
