19
Iteration:  1404
 C         4.599240        -0.560983         1.859753
 C         3.403508        -0.215584         0.829587
 C         2.303293        -1.212206         0.580586
 C         1.427450        -0.028010         0.053129
 C        -0.095043        -0.036247        -0.099035
 O         2.099846         0.119598        -1.212487
 C         3.184894         0.673935        -0.401257
 C         2.402953         1.028732         0.733470
 O         2.327257         2.100167         1.611495
 H         5.115905        -1.482176         1.368533
 H         5.273145         0.268168         1.972435
 H         4.213360        -1.016740         2.830941
 H         2.273837        -2.125095        -0.042354
 H         1.922362        -1.422240         1.530978
 H        -0.534941        -0.229844         0.855061
 H        -0.489415         0.917832        -0.488434
 H        -0.256178        -0.829230        -0.823662
 H         3.995475         1.085442        -1.006484
 H         1.798974         2.790089         1.236323
