19
Iteration:  3058
 C         4.623961        -0.333048         1.706428
 C         3.380257        -0.265549         0.798020
 C         2.083692        -1.146614         0.859273
 C         1.381014        -0.045969         0.061089
 C        -0.037753        -0.094450        -0.120959
 O         2.155496         0.038373        -1.270789
 C         3.224517         0.660866        -0.523804
 C         2.489326         0.991688         0.736282
 O         2.289814         2.020393         1.670813
 H         5.228019        -1.284480         1.470534
 H         5.240424         0.475959         1.597679
 H         4.564519        -0.336634         2.866226
 H         2.045765        -2.171455         0.495514
 H         1.542564        -1.127508         1.846330
 H        -0.631111        -0.564982         0.661325
 H        -0.435343         0.854424        -0.297395
 H        -0.082989        -0.615714        -1.081784
 H         4.161077         1.060764        -0.989370
 H         2.359134         2.823849         1.323663
