19
Iteration:  4958charge 0 multiplicity 1
 C         4.578758        -0.350258         1.697294
 C         3.354037        -0.259143         0.879979
 C         2.205928        -1.282688         0.749176
 C         1.447542        -0.064754         0.049389
 C        -0.003894        -0.020623        -0.003288
 O         2.178946         0.154544        -1.231347
 C         3.214693         0.713228        -0.441720
 C         2.384515         0.930283         0.762638
 O         2.260900         1.987029         1.545773
 H         5.229908        -1.138686         1.197850
 H         5.148093         0.606102         1.630237
 H         4.398680        -0.447573         2.812380
 H         2.130032        -2.180090         0.043643
 H         1.926722        -1.597441         1.737890
 H        -0.382496         0.416284         0.923959
 H        -0.433167         0.580693        -0.859739
 H        -0.356449        -1.058681        -0.303754
 H         4.073487         1.073193        -0.923177
 H         1.908273         2.748061         0.881383
