19
Iteration:  3631charge 0 multiplicity 1
 C         4.643839        -0.467504         1.781332
 C         3.459609        -0.226607         0.857622
 C         2.196258        -1.195685         0.794898
 C         1.407757        -0.056352         0.009109
 C        -0.062196        -0.002722        -0.004816
 O         2.098297         0.117284        -1.287059
 C         3.264507         0.585653        -0.537534
 C         2.465278         0.975414         0.722949
 O         2.123005         2.110631         1.572653
 H         5.383540        -1.252956         1.383349
 H         5.258716         0.414916         1.790425
 H         4.266876        -0.796388         2.777749
 H         2.243731        -2.183812         0.351180
 H         1.786123        -1.285995         1.822776
 H        -0.203083        -0.440204         1.010122
 H        -0.508320         0.920110        -0.332247
 H        -0.281926        -0.825378        -0.551685
 H         4.143234         1.010785        -1.159515
 H         2.717771         2.711898         1.339165
