19
Iteration:   682
 C         4.653588        -0.366220         1.636445
 C         3.335003        -0.171705         0.903025
 C         2.198340        -1.209760         0.767115
 C         1.407731        -0.060750         0.041059
 C        -0.145261        -0.004892        -0.254600
 O         2.137925         0.052151        -1.247641
 C         3.284216         0.539124        -0.385091
 C         2.378208         0.988834         0.753943
 O         2.319366         2.046132         1.717804
 H         5.056230        -1.374531         1.411904
 H         5.403039         0.280503         1.594563
 H         4.437243        -0.350329         2.706277
 H         2.376142        -2.053856         0.087539
 H         1.878672        -1.515529         1.730308
 H        -0.610070         0.042894         0.708168
 H        -0.569048         0.972651        -0.578648
 H        -0.556067        -0.882208        -0.746393
 H         4.266454         1.010765        -0.589801
 H         2.514772         2.979702         1.104092
