19
Iteration:  1501charge 0 multiplicity 1
 C         4.659420        -0.344197         1.604374
 C         3.364030        -0.204014         0.906032
 C         2.211216        -1.225784         0.740292
 C         1.414436        -0.160918         0.033187
 C        -0.038343         0.168234        -0.224842
 O         2.163499        -0.005269        -1.262687
 C         3.164103         0.599113        -0.402269
 C         2.384836         0.945081         0.794148
 O         2.270468         1.984199         1.754173
 H         5.006349        -1.305612         1.224848
 H         5.310602         0.508723         1.444943
 H         4.477505        -0.462092         2.729819
 H         2.533931        -2.232003         0.307622
 H         1.777421        -1.345117         1.702742
 H        -0.569335         0.392100         0.656004
 H         0.084210         1.136854        -0.701866
 H        -0.420372        -0.545435        -0.921241
 H         3.955389         1.211359        -0.740222
 H         1.841442         2.896468         1.517646
