19
Iteration:  3251charge 0 multiplicity 1
 C         4.548765        -0.410403         1.651793
 C         3.308829        -0.191938         0.987020
 C         2.222267        -1.290893         0.685270
 C         1.432608        -0.140012         0.006353
 C        -0.088317        -0.044716        -0.071201
 O         2.176645         0.151848        -1.183775
 C         3.246110         0.545166        -0.406025
 C         2.424575         0.988164         0.807699
 O         2.360133         2.177812         1.513798
 H         5.192404        -1.248322         1.266821
 H         5.165690         0.635140         1.627181
 H         4.364425        -0.338105         2.734086
 H         2.555395        -2.157458         0.021494
 H         1.719951        -1.751550         1.572239
 H        -0.575693        -0.495285         0.774163
 H        -0.371467         0.963190        -0.171169
 H        -0.608872        -0.545381        -0.871534
 H         4.196547         0.895339        -0.937026
 H         1.499689         2.569170         1.264814
