19
Iteration:   233charge 0 multiplicity 1
 C         4.472101        -0.344834         1.879386
 C         3.279001        -0.223715         0.934519
 C         2.209799        -1.291772         0.697917
 C         1.451059        -0.070463         0.049603
 C        -0.070417        -0.099818        -0.028292
 O         2.050620         0.166824        -1.278815
 C         3.239130         0.634537        -0.491867
 C         2.462454         0.941475         0.716794
 O         2.482902         2.140182         1.415056
 H         5.232748        -1.092425         1.575750
 H         4.972478         0.549421         1.992643
 H         4.107349        -0.673906         2.851915
 H         2.377582        -2.124678        -0.069595
 H         1.779646        -1.559049         1.665271
 H        -0.627087        -0.478191         0.842822
 H        -0.403894         0.904209        -0.287005
 H        -0.355149        -0.694153        -0.908946
 H         4.167507         1.027251        -0.957872
 H         2.554771         1.954903         2.494373
