19
Iteration:   215charge 0 multiplicity 1
 C         4.494788        -0.428597         1.861826
 C         3.323329        -0.250243         0.931511
 C         2.278531        -1.252890         0.739982
 C         1.383511        -0.225092        -0.078580
 C        -0.099786        -0.054243        -0.044349
 O         2.107561         0.296909        -1.256884
 C         3.208756         0.593786        -0.398036
 C         2.455000         0.875972         0.759262
 O         2.398780         2.208693         1.333665
 H         5.269415        -1.120522         1.497868
 H         5.072873         0.583659         2.103821
 H         4.218067        -0.773462         2.889984
 H         2.618557        -2.197817         0.435844
 H         1.636089        -1.558902         1.604322
 H        -0.207606        -0.382464         1.020250
 H        -0.343423         1.006940        -0.182064
 H        -0.764920        -0.637004        -0.706558
 H         3.856566         1.109942        -1.050867
 H         2.869835         2.047172         2.369056
