19
Iteration:  2249
 C         4.548251        -0.399678         1.736027
 C         3.296994        -0.201881         0.933705
 C         2.162787        -1.141638         0.690518
 C         1.491735        -0.097697        -0.067076
 C        -0.057453        -0.081521         0.040459
 O         2.170809         0.103757        -1.323058
 C         3.312234         0.538441        -0.470371
 C         2.386241         1.001126         0.699523
 O         2.297938         2.068924         1.651994
 H         5.135333        -1.360389         1.652378
 H         5.437883         0.330389         1.627786
 H         4.253062        -0.186809         2.767747
 H         2.341909        -2.103775         0.038818
 H         1.497588        -1.381973         1.616715
 H        -0.434746        -0.382038         0.990873
 H        -0.373971         0.961032        -0.053897
 H        -0.689693        -0.713231        -0.641114
 H         4.276288         0.956984        -0.766817
 H         2.226699         2.970486         1.235061
