19
Iteration:  4666charge 0 multiplicity 1
 C         4.638160        -0.431167         1.668949
 C         3.374991        -0.172336         0.940047
 C         2.254392        -1.246272         0.726869
 C         1.472103        -0.132815         0.010209
 C        -0.061623        -0.036861        -0.082270
 O         2.141967         0.093239        -1.194976
 C         3.210107         0.624146        -0.422398
 C         2.365608         0.964608         0.749401
 O         2.269972         2.124890         1.585701
 H         5.101541        -1.338242         1.385915
 H         5.317947         0.469934         1.523535
 H         4.341471        -0.601256         2.673637
 H         2.476528        -2.104958         0.003515
 H         1.652502        -1.528426         1.566040
 H        -0.482888        -0.495451         0.775630
 H        -0.314158         1.019964        -0.144542
 H        -0.457063        -0.576493        -0.932828
 H         4.014825         1.190853        -1.045657
 H         1.575491         2.903532         1.347612
