19
Iteration:  4850charge 0 multiplicity 1
 C         4.644692        -0.385007         1.616898
 C         3.358673        -0.208423         0.954695
 C         2.200319        -1.161662         0.712966
 C         1.400152        -0.049935         0.100945
 C        -0.053443        -0.081864        -0.125875
 O         2.187981         0.125220        -1.210380
 C         3.200546         0.601417        -0.415121
 C         2.442736         0.896441         0.847181
 O         2.207357         2.055998         1.565842
 H         5.268728        -1.162879         1.185969
 H         5.032013         0.634584         1.395426
 H         4.777601        -0.694529         2.636740
 H         2.478622        -2.085567         0.138933
 H         1.701176        -1.358521         1.590880
 H        -0.544596        -0.424932         0.779197
 H        -0.417429         0.943402        -0.275848
 H        -0.434627        -0.758527        -0.914230
 H         4.103166         0.991449        -0.932111
 H         2.240785         2.944405         0.905498
