19
Iteration:   640
 C         4.676139        -0.260866         1.599860
 C         3.333707        -0.285242         0.910397
 C         2.059152        -1.226136         0.841656
 C         1.341511        -0.038886         0.108620
 C        -0.015760         0.019981        -0.307533
 O         2.198987         0.142335        -1.228864
 C         3.190380         0.520574        -0.390554
 C         2.427272         0.881626         0.848981
 O         2.382796         2.020085         1.621755
 H         5.177477        -1.183466         1.140886
 H         5.311924         0.701803         1.390298
 H         4.619992        -0.372632         2.713487
 H         2.082814        -2.116358         0.287045
 H         1.626436        -1.445190         1.828084
 H        -0.553866        -0.026179         0.660934
 H        -0.266838         0.998078        -0.778074
 H        -0.228303        -0.885332        -0.896868
 H         3.975494         1.075788        -0.930466
 H         1.660873         2.579757         1.457450
