19
Iteration:   598
 C         4.553203        -0.491045         1.744113
 C         3.344220        -0.157015         0.854620
 C         2.184286        -1.134897         0.762410
 C         1.489154        -0.045401         0.025312
 C        -0.008846         0.031635         0.001225
 O         2.225461         0.030834        -1.266965
 C         3.222357         0.585815        -0.528397
 C         2.372418         0.968131         0.727792
 O         2.219630         2.034608         1.636051
 H         5.275512        -1.159289         1.206020
 H         5.154136         0.547769         2.000218
 H         4.157904        -0.993416         2.643551
 H         2.237553        -2.033096         0.130788
 H         1.785906        -1.385873         1.843917
 H        -0.571837        -0.265259         0.917163
 H        -0.215809         1.004266        -0.479176
 H        -0.376341        -0.670970        -0.787667
 H         4.012890         1.179614        -1.011898
 H         2.395277         2.900094         1.077894
