19
Iteration:    95charge 0 multiplicity 1
 C         4.725360        -0.338502         1.718506
 C         3.353991        -0.233326         0.941114
 C         2.154182        -1.248335         0.704717
 C         1.438966        -0.078261         0.019535
 C        -0.040223         0.070940        -0.089459
 O         2.090321         0.029402        -1.244634
 C         3.304036         0.404655        -0.470731
 C         2.440664         1.012143         0.714308
 O         2.108094         2.177769         1.680417
 H         5.364114        -1.187815         1.428369
 H         5.367843         0.600348         1.483725
 H         4.554453        -0.354508         2.817849
 H         2.312817        -2.187853        -0.135225
 H         1.634260        -1.674362         1.670993
 H        -0.556458         0.098756         0.905952
 H        -0.173036         0.996306        -0.653418
 H        -0.493089        -0.734030        -0.701736
 H         4.176521         0.467649        -1.104884
 H         2.959597         2.850449         1.355385
