19
Iteration:   873charge 0 multiplicity 1
 C         4.622293        -0.437345         1.745329
 C         3.355890        -0.284306         0.970544
 C         2.172284        -1.220992         0.633437
 C         1.398979        -0.031358        -0.005463
 C        -0.086073        -0.048302        -0.093731
 O         2.164222         0.183426        -1.221568
 C         3.217698         0.718008        -0.373403
 C         2.429209         0.839327         0.802762
 O         2.368465         2.076167         1.536398
 H         5.112449        -1.336225         1.494817
 H         5.381867         0.424035         1.549672
 H         4.500188        -0.431047         2.802707
 H         2.244053        -2.190511         0.124879
 H         1.583571        -1.427788         1.636917
 H        -0.592193        -0.055656         0.905816
 H        -0.379959         0.951792        -0.507341
 H        -0.456732        -0.891430        -0.770893
 H         4.003244         1.030461        -1.087180
 H         1.622480         2.616015         1.151575
