19
Iteration:  2216charge 0 multiplicity 1
 C         4.584144        -0.339562         1.717684
 C         3.356801        -0.299827         0.854137
 C         2.172163        -1.250777         0.735465
 C         1.447976        -0.087730         0.133268
 C        -0.143270        -0.015720        -0.156214
 O         2.112793         0.154566        -1.166199
 C         3.250291         0.670698        -0.421287
 C         2.512734         0.903565         0.784711
 O         2.368602         2.028072         1.537680
 H         5.144990        -1.308893         1.799518
 H         5.048334         0.644171         1.401214
 H         4.249619        -0.150341         2.716827
 H         2.408742        -2.131100         0.024479
 H         1.660051        -1.443825         1.752745
 H        -0.748308        -0.196498         0.717996
 H        -0.289041         1.003487        -0.531863
 H        -0.462956        -0.751996        -0.956251
 H         4.138779         1.033022        -1.009077
 H         1.842165         2.669621         0.864039
