19
Iteration:  2931charge 0 multiplicity 1
 C         4.573560        -0.510137         1.730921
 C         3.366260        -0.236290         0.890651
 C         2.243901        -1.223527         0.731937
 C         1.401514        -0.071115         0.004176
 C        -0.062534        -0.017579         0.061764
 O         2.252148         0.075059        -1.256645
 C         3.270490         0.647869        -0.419186
 C         2.437086         0.994643         0.727429
 O         2.135298         2.147212         1.506022
 H         5.372530        -0.971047         1.136259
 H         5.158416         0.413448         2.035050
 H         4.283661        -1.062541         2.592642
 H         2.363414        -1.974474        -0.059571
 H         1.767070        -1.621956         1.647449
 H        -0.319695         0.101862         1.190598
 H        -0.470700         0.849175        -0.613906
 H        -0.617964        -0.962676        -0.201713
 H         4.103545         1.053405        -0.971513
 H         2.254292         2.874995         1.010096
