19
Iteration:  4448charge 0 multiplicity 1
 C         4.664441        -0.423185         1.672710
 C         3.358462        -0.318137         0.873324
 C         2.158541        -1.217961         0.745633
 C         1.410827        -0.116719         0.077665
 C        -0.065754        -0.113142        -0.043218
 O         2.186521         0.181084        -1.267667
 C         3.234633         0.651384        -0.380012
 C         2.458572         0.943437         0.849673
 O         2.231816         2.164681         1.498304
 H         5.105275        -1.318867         1.277866
 H         5.412103         0.473412         1.746519
 H         4.451819        -0.576628         2.707579
 H         2.291485        -2.014128         0.025053
 H         1.800694        -1.473262         1.757610
 H        -0.570189        -0.344443         0.907197
 H        -0.445032         0.941113        -0.367994
 H        -0.272117        -0.827092        -0.912374
 H         4.093590         1.138771        -0.729454
 H         1.662369         2.864341         0.839565
