19
Iteration:   666
 C         4.612408        -0.321974         1.589202
 C         3.281591        -0.254272         0.964561
 C         2.138246        -1.243193         0.768984
 C         1.349270        -0.119293        -0.018487
 C        -0.108105         0.006309        -0.247091
 O         2.228717         0.081478        -1.154462
 C         3.223516         0.607304        -0.394623
 C         2.446093         0.961618         0.844142
 O         2.383117         2.046005         1.683595
 H         5.130186        -1.217380         1.259445
 H         5.187019         0.614840         1.042978
 H         4.711609        -0.110202         2.677718
 H         2.356506        -2.205459         0.183501
 H         1.582861        -1.543200         1.720938
 H        -0.786207         0.064106         0.668924
 H        -0.143890         0.918568        -0.834442
 H        -0.421041        -0.824355        -0.930080
 H         4.035228         0.909853        -1.040270
 H         2.103486         2.970814         1.209502
