19
Iteration:   801
 C         4.747915        -0.376753         1.635873
 C         3.351104        -0.269799         0.902919
 C         2.172683        -1.222225         0.855806
 C         1.403671        -0.073676         0.007856
 C        -0.117187         0.109767        -0.234128
 O         2.161018         0.100761        -1.207865
 C         3.204405         0.638681        -0.452456
 C         2.461075         0.927582         0.765444
 O         2.188298         1.941892         1.650455
 H         5.444037        -1.189135         1.214070
 H         5.275332         0.549938         1.652584
 H         4.691293        -0.551942         2.755628
 H         2.210921        -2.351098         0.604707
 H         1.637045        -1.031852         1.750049
 H        -0.745067         0.052118         0.619432
 H        -0.408371         1.103835        -0.651568
 H        -0.331427        -0.739729        -0.866394
 H         4.173181         1.024667        -0.847421
 H         2.631643         2.900526         1.403225
