19
Iteration:  3270
 C         4.626261        -0.404368         1.818862
 C         3.348870        -0.285540         0.903025
 C         2.187888        -1.233464         0.679354
 C         1.369220        -0.059823         0.017788
 C        -0.157860        -0.094202        -0.035219
 O         2.192389         0.036064        -1.291727
 C         3.237225         0.675413        -0.443460
 C         2.458770         1.012034         0.734166
 O         2.370319         2.172842         1.583810
 H         5.195304        -1.223489         1.198673
 H         5.151911         0.562314         1.970076
 H         4.426227        -0.638782         2.853517
 H         2.383029        -2.112795        -0.055294
 H         1.597059        -1.579601         1.571942
 H        -0.468226        -0.606550         0.908032
 H        -0.619225         0.961664        -0.007435
 H        -0.532090        -0.686041        -0.859115
 H         4.180530         1.127528        -0.908206
 H         1.703442         2.796067         1.048963
