19
Iteration:  3444
 C         4.600754        -0.356741         1.731411
 C         3.299803        -0.222957         0.934799
 C         2.198457        -1.231961         0.695472
 C         1.387426        -0.125017         0.041689
 C        -0.074501        -0.022894         0.004734
 O         2.219642         0.107182        -1.271211
 C         3.251275         0.635035        -0.424318
 C         2.411125         0.947372         0.778791
 O         2.279351         2.065701         1.515928
 H         5.183934        -1.252271         1.326258
 H         5.275481         0.430969         1.595237
 H         4.358706        -0.574136         2.790048
 H         2.376219        -2.095501         0.135734
 H         1.692193        -1.501122         1.611975
 H        -0.620130        -0.442919         0.897971
 H        -0.467771         0.993317        -0.357765
 H        -0.426038        -0.723139        -0.799317
 H         4.098821         1.196958        -0.791273
 H         2.510666         2.987592         1.014766
