19
Iteration:  2049
 C         4.617437        -0.247888         1.696989
 C         3.352783        -0.322201         0.880459
 C         2.113221        -1.173262         0.824407
 C         1.400869        -0.006589         0.015871
 C        -0.086962        -0.012776        -0.035302
 O         2.159451         0.195537        -1.301533
 C         3.319829         0.528576        -0.445407
 C         2.495268         0.880811         0.731937
 O         2.270921         1.951771         1.631620
 H         5.161349        -1.240258         1.648669
 H         5.344903         0.426812         1.379300
 H         4.327640        -0.106383         2.791834
 H         2.086320        -2.157053         0.195891
 H         1.536188        -1.303329         1.757908
 H        -0.566094        -0.393754         0.921307
 H        -0.557495         0.871883        -0.430868
 H        -0.239380        -0.679876        -0.893184
 H         4.118237         0.934018        -1.054170
 H         2.214002         2.789615         0.867486
