19
Iteration:  4800charge 0 multiplicity 1
 C         4.666803        -0.502005         1.658920
 C         3.403217        -0.152424         0.926179
 C         2.210838        -1.143811         0.709194
 C         1.425026        -0.068177         0.050616
 C        -0.015222        -0.107123        -0.015639
 O         2.133479         0.158153        -1.223642
 C         3.218935         0.715552        -0.430958
 C         2.435362         0.941519         0.766161
 O         2.185276         2.039399         1.512583
 H         5.097011        -1.470473         1.436348
 H         5.359455         0.296738         2.001037
 H         4.281139        -0.950809         2.598618
 H         2.495285        -1.929071         0.024551
 H         1.770716        -1.529640         1.716771
 H        -0.545734         0.190920         0.960460
 H        -0.347723         0.640952        -0.721781
 H        -0.455626        -1.055045        -0.354928
 H         4.134046         1.052213        -0.773114
 H         1.829772         2.659136         1.002743
