19
Iteration:   944
 C         4.610472        -0.454438         1.702958
 C         3.335031        -0.229399         0.857876
 C         2.142749        -1.232726         0.752159
 C         1.457131        -0.091128         0.066359
 C        -0.053858         0.058360         0.015057
 O         2.241279         0.135972        -1.297706
 C         3.289001         0.660483        -0.467934
 C         2.387346         0.919224         0.742331
 O         2.177644         2.044993         1.601753
 H         5.442218        -0.967192         0.997981
 H         5.090614         0.453179         2.028779
 H         4.522847        -1.182535         2.634941
 H         2.128811        -2.221332         0.297741
 H         1.651760        -1.338932         1.654482
 H        -0.693856         0.116346         0.915653
 H        -0.201647         0.958757        -0.573031
 H        -0.413753        -0.700885        -0.644647
 H         4.274099         0.926506        -0.819834
 H         2.337413         2.757721         1.107223
