19
Iteration:   209charge 0 multiplicity 1
 C         4.543192        -0.453112         1.855929
 C         3.362664        -0.268776         0.924976
 C         2.253395        -1.278646         0.726441
 C         1.415609        -0.172673        -0.081950
 C        -0.124863        -0.041677        -0.014793
 O         2.161382         0.238317        -1.299659
 C         3.182853         0.621062        -0.405210
 C         2.398191         0.886797         0.853375
 O         2.368269         2.224716         1.334684
 H         5.334735        -1.128851         1.512967
 H         5.035061         0.475444         1.988517
 H         4.196001        -0.830387         2.818345
 H         2.510836        -2.330492         0.206415
 H         1.756133        -1.295483         1.713187
 H        -0.394326        -0.298392         1.007513
 H        -0.387375         1.014760        -0.207847
 H        -0.739232        -0.687819        -0.656953
 H         3.977812         1.148250        -1.003602
 H         2.721738         2.277705         2.227426
