19
Iteration:   514
 C         4.631530        -0.463767         1.661337
 C         3.340914        -0.244708         0.893199
 C         2.217889        -1.233066         0.772089
 C         1.352824        -0.142331        -0.006922
 C        -0.167511         0.003152        -0.123583
 O         2.247420         0.086207        -1.262932
 C         3.250551         0.660226        -0.381100
 C         2.486718         1.014871         0.777967
 O         2.234973         2.113974         1.638422
 H         5.160292        -1.377378         1.327101
 H         5.317436         0.341863         1.457765
 H         4.503077        -0.581230         2.765627
 H         2.260328        -2.214482         0.236397
 H         1.803354        -1.301409         1.806292
 H        -0.689152         0.063446         0.875722
 H        -0.272784         0.905189        -0.716576
 H        -0.626576        -0.736744        -0.817593
 H         4.266204         1.006269        -0.668826
 H         2.063716         2.820030         1.102801
