19
Iteration:  4951
 C         4.597514        -0.345159         1.658458
 C         3.332944        -0.297229         0.868438
 C         2.198673        -1.263500         0.807028
 C         1.419789         0.011546         0.012949
 C         0.010133        -0.010929        -0.048236
 O         2.193630         0.148309        -1.227669
 C         3.201767         0.692139        -0.468606
 C         2.419516         0.895325         0.730134
 O         2.235494         1.961342         1.587428
 H         5.354426        -1.012968         1.364407
 H         5.201496         0.603856         1.760102
 H         4.173228        -0.333562         2.649082
 H         2.252782        -2.117861         0.141648
 H         1.856484        -1.446887         1.827699
 H        -0.315778         0.141170         1.037546
 H        -0.575799         0.564127        -0.696738
 H        -0.292963        -1.038011        -0.101407
 H         4.130710         1.151898        -0.870686
 H         2.043492         2.804380         0.897875
