19
Iteration:   997charge 0 multiplicity 1
 C         4.653325        -0.360288         1.548660
 C         3.283717        -0.284815         0.932550
 C         2.173494        -1.233379         0.812169
 C         1.374249        -0.043429         0.102611
 C        -0.063821         0.054591        -0.287077
 O         2.217784         0.027543        -1.189427
 C         3.164368         0.623666        -0.406626
 C         2.467069         0.961823         0.796474
 O         2.309427         2.023302         1.708321
 H         5.328264        -1.203725         1.225020
 H         5.258276         0.464320         1.287020
 H         4.653677        -0.369463         2.678956
 H         2.332029        -1.989098        -0.026591
 H         1.769596        -1.686493         1.704042
 H        -0.667255         0.193786         0.632979
 H        -0.150123         1.055697        -0.787630
 H        -0.614488        -0.578487        -0.986261
 H         4.066587         1.052104        -0.818675
 H         1.819030         2.882261         1.306348
