19
Iteration:  2577
 C         4.571422        -0.471848         1.781942
 C         3.399184        -0.204904         0.886740
 C         2.254357        -1.191588         0.740299
 C         1.459112        -0.073851         0.069442
 C        -0.027621         0.011982        -0.065104
 O         2.118375         0.088018        -1.252277
 C         3.205400         0.593991        -0.500592
 C         2.456157         0.936354         0.754209
 O         2.270696         2.136339         1.544649
 H         4.965111        -1.418789         1.376910
 H         5.365504         0.346878         1.716847
 H         4.039216        -0.471962         2.778071
 H         2.447683        -1.984532         0.076376
 H         1.723474        -1.392451         1.661307
 H        -0.450833        -0.075891         0.951054
 H        -0.396803         0.993570        -0.480582
 H        -0.372638        -1.041412        -0.558719
 H         4.040043         0.966974        -1.009812
 H         1.462552         2.550794         1.295429
