19
Iteration:  4275charge 0 multiplicity 1
 C         4.594566        -0.395739         1.709040
 C         3.340511        -0.275118         0.931120
 C         2.279171        -1.237988         0.772095
 C         1.410024        -0.082094         0.095731
 C        -0.153198        -0.086536        -0.104218
 O         2.137437         0.176011        -1.254876
 C         3.235788         0.632114        -0.428049
 C         2.449353         0.957505         0.726087
 O         2.331849         2.108778         1.531769
 H         5.192225        -1.377738         1.524401
 H         5.314893         0.422762         1.566978
 H         4.116392        -0.468178         2.773505
 H         2.506372        -2.216304         0.364437
 H         1.785619        -1.537880         1.761400
 H        -0.607492        -0.400788         0.793925
 H        -0.404460         0.956310        -0.319374
 H        -0.375938        -0.751180        -0.928352
 H         4.192795         1.059371        -0.912781
 H         1.757597         2.876050         1.012921
