19
Iteration:  4704
 C         4.687951        -0.245287         1.629443
 C         3.389678        -0.293692         0.815172
 C         2.172479        -1.220186         0.765764
 C         1.389445        -0.060115         0.060459
 C        -0.044078        -0.020568        -0.170676
 O         2.135235         0.113512        -1.175356
 C         3.279365         0.534267        -0.499648
 C         2.372140         0.985908         0.790653
 O         2.266412         1.961253         1.694925
 H         5.422963        -1.113503         1.539924
 H         5.123636         0.707541         1.690738
 H         4.425109        -0.364476         2.747037
 H         2.329806        -2.201882         0.382753
 H         1.630655        -1.194469         1.761576
 H        -0.634718        -0.240098         0.770598
 H        -0.420116         1.003006        -0.410693
 H        -0.366012        -0.662335        -1.026796
 H         3.907337         1.130671        -1.040652
 H         2.051451         2.827693         1.072113
