19
Iteration:  4573
 C         4.664986        -0.343662         1.612028
 C         3.317028        -0.178675         0.897707
 C         2.256957        -1.220652         0.722567
 C         1.430656        -0.083189         0.092946
 C        -0.073218         0.046990        -0.113459
 O         2.213169         0.028248        -1.207484
 C         3.186973         0.657564        -0.366541
 C         2.356086         0.934552         0.754362
 O         2.258755         1.990431         1.614550
 H         5.445527        -1.035313         1.050607
 H         5.138033         0.614034         1.544043
 H         4.564992        -0.804889         2.653060
 H         2.117275        -2.152706         0.092175
 H         1.696981        -1.366022         1.705969
 H        -0.626076         0.299660         0.836529
 H        -0.208901         0.747555        -0.911419
 H        -0.484606        -0.948335        -0.392525
 H         4.021728         1.184362        -0.833320
 H         1.970722         2.663972         1.043447
