19
Iteration:  3513
 C         4.613338        -0.418807         1.709607
 C         3.342717        -0.150052         0.883571
 C         2.246469        -1.153432         0.825860
 C         1.431884        -0.111059         0.017614
 C        -0.190771        -0.015269        -0.164709
 O         2.188552        -0.001291        -1.194666
 C         3.207425         0.685824        -0.517973
 C         2.408601         1.018357         0.707571
 O         2.333864         2.024591         1.674736
 H         5.212337        -1.158796         1.142391
 H         5.321362         0.481426         1.761569
 H         4.269302        -0.849624         2.632353
 H         2.528064        -2.193349         0.470047
 H         1.715141        -1.220958         1.781263
 H        -0.662331        -0.263611         0.851441
 H        -0.389797         0.927176        -0.732132
 H        -0.530643        -0.980113        -0.813707
 H         4.118586         1.087352        -1.079145
 H         2.203156         2.791438         1.260924
