19
Iteration:   490charge 0 multiplicity 1
 C         4.627432        -0.440331         1.635412
 C         3.316469        -0.122223         0.883412
 C         2.135158        -1.101928         0.834259
 C         1.418618         0.013373         0.026253
 C        -0.005774        -0.017584        -0.241911
 O         2.184798         0.005418        -1.170392
 C         3.229525         0.553659        -0.500953
 C         2.400636         1.047998         0.739760
 O         2.284645         1.925648         1.738487
 H         5.094795        -1.276748         1.189797
 H         5.321317         0.393686         1.376387
 H         4.556816        -0.641768         2.683793
 H         2.215801        -2.173663         0.492797
 H         1.538927        -0.853423         1.830476
 H        -0.512040        -0.204347         0.734589
 H        -0.458637         0.780656        -0.853033
 H        -0.123381        -0.897163        -0.928219
 H         4.020809         1.040664        -1.042546
 H         2.228058         2.994805         1.410242
