19
Iteration:  3799charge 0 multiplicity 1
 C         4.594669        -0.374644         1.765124
 C         3.388752        -0.334895         0.882910
 C         2.211467        -1.326204         0.722740
 C         1.422824        -0.131014         0.051924
 C        -0.057790         0.076803        -0.059159
 O         2.167938         0.138337        -1.237769
 C         3.151297         0.670959        -0.509460
 C         2.466363         0.920490         0.816893
 O         2.258429         2.115418         1.562608
 H         5.398644        -1.082344         1.674032
 H         5.186830         0.672221         1.415914
 H         4.297351        -0.490965         2.790601
 H         2.477398        -2.237208         0.120569
 H         1.817673        -1.665877         1.651804
 H        -0.504983        -0.025874         0.945940
 H        -0.502956         0.942865        -0.568474
 H        -0.472804        -0.961943        -0.358670
 H         3.979477         1.191062        -1.135021
 H         2.228025         2.840019         0.706733
