19
Iteration:  3023
 C         4.638392        -0.184379         1.592462
 C         3.273901        -0.274280         0.964983
 C         2.185583        -1.342409         0.788419
 C         1.405055        -0.123360         0.074425
 C        -0.161522         0.054748        -0.241459
 O         2.175698         0.065730        -1.131382
 C         3.232499         0.603397        -0.375736
 C         2.415100         0.954990         0.789314
 O         2.398097         2.041078         1.607542
 H         5.041786        -1.078772         1.235973
 H         5.236313         0.489737         1.036982
 H         4.696588        -0.088342         2.693670
 H         2.478177        -2.139208         0.139159
 H         1.762234        -1.662777         1.722085
 H        -0.948996        -0.146611         0.479149
 H        -0.210494         1.012939        -0.744757
 H        -0.392702        -0.698490        -1.102482
 H         4.114872         0.798465        -0.865429
 H         2.033765         2.796717         1.183262
