19
Iteration:  1344
 C         4.675761        -0.355629         1.553320
 C         3.352902        -0.294588         0.996193
 C         2.063669        -1.214650         0.675090
 C         1.396060        -0.027440        -0.005835
 C        -0.108174         0.079715        -0.152821
 O         2.320177         0.047618        -1.244944
 C         3.245944         0.560179        -0.387426
 C         2.459595         0.948575         0.812179
 O         2.167344         2.030166         1.716568
 H         5.272888        -0.735514         0.735049
 H         5.207272         0.684340         1.826790
 H         4.839269        -0.965285         2.435698
 H         2.160574        -2.116124         0.085079
 H         1.627583        -1.511137         1.722890
 H        -0.499937         0.006754         0.896284
 H        -0.421522         1.069354        -0.521406
 H        -0.687748        -0.720957        -0.639933
 H         4.190019         0.964395        -0.691511
 H         2.339745         2.979699         1.212657
