19
Iteration:  2112charge 0 multiplicity 1
 C         4.627688        -0.498036         1.711748
 C         3.380855        -0.249240         0.883665
 C         2.240332        -1.210654         0.755695
 C         1.433280        -0.077756         0.072368
 C        -0.094241         0.039864        -0.058990
 O         2.153217         0.093362        -1.163102
 C         3.229448         0.664953        -0.414066
 C         2.399963         0.977180         0.725358
 O         2.266524         2.072405         1.491155
 H         5.230704        -1.193995         1.196136
 H         5.208866         0.404670         1.845871
 H         4.236734        -0.902459         2.703136
 H         2.490738        -2.108223         0.076144
 H         1.946306        -1.649867         1.705826
 H        -0.648536         0.176524         0.846945
 H        -0.313244         0.918448        -0.689622
 H        -0.425165        -0.807734        -0.622090
 H         4.078145         1.196092        -0.909081
 H         1.731717         2.819509         0.981883
