19
Iteration:  1622
 C         4.610973        -0.414202         1.726998
 C         3.358422        -0.336136         0.851981
 C         2.148911        -1.211506         0.748679
 C         1.360025        -0.032800         0.112951
 C        -0.067817        -0.152699        -0.167348
 O         2.160038         0.235478        -1.239454
 C         3.203251         0.618386        -0.464486
 C         2.444468         1.020899         0.776381
 O         2.334219         2.036314         1.655260
 H         5.154213        -1.214278         1.264568
 H         5.171977         0.443477         1.495513
 H         4.525530        -0.418249         2.874371
 H         2.278748        -2.139396         0.050073
 H         1.747994        -1.398328         1.720854
 H        -0.554482        -0.202498         0.803574
 H        -0.312844         0.869892        -0.571228
 H        -0.248975        -0.937065        -0.919390
 H         4.130801         1.071026        -0.928949
 H         2.356233         2.934899         1.032677
