19
Iteration:   474
 C         4.569840        -0.341866         1.553560
 C         3.310636        -0.251227         0.848396
 C         2.045837        -1.087712         0.946099
 C         1.436657         0.019245         0.145100
 C        -0.038762        -0.083460        -0.286662
 O         2.151681         0.040250        -1.208565
 C         3.322226         0.625611        -0.480804
 C         2.512420         1.030575         0.701034
 O         2.324752         1.933440         1.748453
 H         5.073967        -1.294377         1.175901
 H         5.162302         0.560356         1.538957
 H         4.302788        -0.450474         2.650928
 H         2.064223        -2.006165         0.331529
 H         1.820751        -1.303514         1.923716
 H        -0.819518        -0.209305         0.458645
 H        -0.248066         0.865035        -0.777252
 H        -0.073106        -0.944052        -0.941650
 H         4.264447         0.798946        -1.041179
 H         1.785326         2.729395         1.420759
