19
Iteration:  1141charge 0 multiplicity 1
 C         4.701050        -0.424049         1.536625
 C         3.294553        -0.263638         0.946001
 C         2.083856        -1.182937         0.842894
 C         1.408520        -0.091152         0.024859
 C        -0.032465         0.069997        -0.148713
 O         2.226280         0.141909        -1.230365
 C         3.272255         0.600726        -0.441793
 C         2.501700         0.956031         0.779546
 O         2.147091         1.980249         1.672722
 H         5.602287        -0.678514         1.007142
 H         4.991451         0.440636         1.957455
 H         4.521499        -1.006056         2.452349
 H         2.245141        -2.037926         0.101882
 H         1.675618        -1.394198         1.814572
 H        -0.572694         0.060665         0.861713
 H        -0.266565         1.005254        -0.652151
 H        -0.519435        -0.724832        -0.756608
 H         4.227538         0.765482        -0.930133
 H         2.222765         2.892248         1.089406
