19
Iteration:  2015
 C         4.575470        -0.315403         1.610422
 C         3.336922        -0.165161         0.891706
 C         2.212514        -1.200957         0.840714
 C         1.393338        -0.070318         0.091784
 C        -0.120701         0.040930        -0.224848
 O         2.191422        -0.029009        -1.233095
 C         3.226549         0.597583        -0.473696
 C         2.404647         0.975246         0.783795
 O         2.391705         2.003606         1.678218
 H         4.968516        -1.258741         1.218514
 H         5.238104         0.460811         1.436041
 H         4.394899        -0.409825         2.750553
 H         2.340644        -2.121625         0.142696
 H         1.605792        -1.452585         1.708574
 H        -0.697315        -0.162158         0.689875
 H        -0.378162         1.025653        -0.613527
 H        -0.219144        -0.771975        -0.909574
 H         4.113013         1.183692        -0.908536
 H         1.823624         2.825023         1.619954
