19
Iteration:  3606
 C         4.562406        -0.395960         1.636734
 C         3.377035        -0.201254         0.893591
 C         2.275962        -1.258869         0.682872
 C         1.410031        -0.147106         0.122122
 C        -0.060292         0.079735        -0.010932
 O         2.166027         0.036458        -1.155611
 C         3.219457         0.667900        -0.406182
 C         2.481108         0.954249         0.762220
 O         2.170302         2.074263         1.479978
 H         5.088745        -1.324313         1.347868
 H         5.258159         0.396098         1.552312
 H         4.246936        -0.466604         2.744803
 H         2.550323        -2.029504        -0.090302
 H         1.689596        -1.764055         1.535416
 H        -0.529326         0.038635         0.925399
 H        -0.122578         0.986061        -0.590435
 H        -0.522915        -0.754244        -0.521996
 H         4.076877         1.123451        -0.882256
 H         2.547941         2.896988         1.117486
