19
Iteration:  3837charge 0 multiplicity 1
 C         4.608784        -0.324521         1.620599
 C         3.278011        -0.241836         0.953197
 C         2.221273        -1.286282         0.757770
 C         1.391335        -0.024165         0.040848
 C        -0.132048         0.014915        -0.095191
 O         2.225186         0.103221        -1.173525
 C         3.270263         0.546960        -0.422873
 C         2.413026         0.939210         0.768183
 O         2.321628         2.064739         1.558355
 H         5.269366        -1.043598         1.046273
 H         5.011888         0.607346         1.696438
 H         4.513890        -0.585698         2.718841
 H         2.446248        -2.042915         0.030839
 H         1.792179        -1.635992         1.733291
 H        -0.561095        -0.225961         0.905555
 H        -0.561296         0.891201        -0.596616
 H        -0.392227        -0.790360        -0.771765
 H         4.068486         1.026448        -0.920630
 H         1.917915         2.880202         1.026146
