19
Iteration:  2770
 C         4.633032        -0.394556         1.676165
 C         3.287151        -0.255586         0.952299
 C         2.245525        -1.347859         0.654934
 C         1.390997        -0.120253        -0.001106
 C        -0.089363         0.032617        -0.041530
 O         2.172690         0.087712        -1.191461
 C         3.262074         0.635018        -0.329311
 C         2.352679         0.930608         0.791654
 O         2.245097         2.171089         1.491745
 H         5.458796        -1.131802         1.360384
 H         5.191606         0.588619         1.699477
 H         4.362796        -0.801061         2.700319
 H         2.705853        -1.971642        -0.199403
 H         1.929574        -1.667743         1.691259
 H        -0.336093         0.215312         0.976443
 H        -0.328919         0.920951        -0.623465
 H        -0.703641        -0.737979        -0.432687
 H         4.066746         1.105762        -0.803700
 H         2.831968         2.837678         0.881671
