19
Iteration:   904charge 0 multiplicity 1
 C         4.498356        -0.482787         1.766013
 C         3.374481        -0.236238         0.850437
 C         2.257335        -1.250654         0.615239
 C         1.441870        -0.031378         0.084329
 C        -0.047338        -0.040679         0.053751
 O         2.154123         0.177493        -1.279146
 C         3.322696         0.622277        -0.451703
 C         2.430053         0.938049         0.786125
 O         2.228706         2.122769         1.571613
 H         5.091229        -1.252510         1.357317
 H         5.183431         0.264648         2.178542
 H         4.006712        -0.931215         2.593998
 H         2.423673        -2.094309        -0.075166
 H         1.792070        -1.537715         1.662768
 H        -0.552504        -0.120472         1.060486
 H        -0.241404         0.905866        -0.445940
 H        -0.484537        -0.771944        -0.658971
 H         4.172993         0.827341        -1.155844
 H         2.014016         2.950325         0.844257
