19
Iteration:  1823charge 0 multiplicity 1
 C         4.708930        -0.318334         1.621661
 C         3.316011        -0.214603         0.904550
 C         2.086104        -1.235069         0.711645
 C         1.394978        -0.098687         0.031987
 C        -0.104275        -0.025381        -0.277201
 O         2.141779         0.077277        -1.205431
 C         3.237879         0.610399        -0.415734
 C         2.372477         0.958170         0.831265
 O         2.382476         2.060282         1.728169
 H         5.271791        -1.225404         1.214241
 H         5.301745         0.646660         1.462477
 H         4.632637        -0.472614         2.661716
 H         2.372763        -2.278250         0.377956
 H         1.719946        -1.265156         1.835949
 H        -0.628999        -0.251364         0.701587
 H        -0.425484         0.958740        -0.617907
 H        -0.356680        -0.917010        -0.884938
 H         4.249976         0.937470        -0.819781
 H         2.185007         2.807999         1.302346
