19
Iteration:   447
 C         4.680113        -0.269801         1.710324
 C         3.337804        -0.334418         0.953100
 C         2.134511        -1.191087         0.750335
 C         1.409875        -0.087739        -0.044515
 C        -0.130874        -0.003923        -0.255635
 O         2.087265         0.094363        -1.218653
 C         3.241515         0.580928        -0.374611
 C         2.439398         0.914208         0.766890
 O         2.439160         2.050298         1.668861
 H         5.268138        -1.088536         1.286019
 H         5.156761         0.735486         1.481097
 H         4.568922        -0.428595         2.797816
 H         2.187835        -2.242415         0.393764
 H         1.670497        -1.067544         1.813027
 H        -0.764786        -0.059167         0.662491
 H        -0.345618         0.955842        -0.781921
 H        -0.416628        -0.825005        -0.988144
 H         4.055536         0.996304        -0.917799
 H         1.713169         2.666132         1.474206
