19
Iteration:  1281
 C         4.630806        -0.424044         1.773285
 C         3.376405        -0.311596         0.857388
 C         2.219300        -1.263858         0.748236
 C         1.413685        -0.038475         0.061961
 C        -0.131089         0.034069        -0.171140
 O         2.129939         0.191231        -1.227731
 C         3.244921         0.663829        -0.504266
 C         2.496887         0.972132         0.756752
 O         2.280537         1.980779         1.646601
 H         5.007820        -1.421211         1.654662
 H         5.548837         0.191981         1.475967
 H         4.187496        -0.205709         2.781484
 H         2.388174        -2.023098        -0.029273
 H         1.851469        -1.678527         1.643131
 H        -0.453758        -0.113051         0.885968
 H        -0.443891         0.936716        -0.620459
 H        -0.495412        -0.775147        -0.778671
 H         4.104904         1.199704        -0.851693
 H         1.587425         2.812045         1.362299
