19
Iteration:   910charge 0 multiplicity 1
 C         4.500391        -0.513414         1.796105
 C         3.375835        -0.234340         0.837993
 C         2.267096        -1.189248         0.614265
 C         1.449298        -0.032271         0.051993
 C        -0.057372        -0.024815         0.066109
 O         2.175385         0.143120        -1.242586
 C         3.337302         0.629114        -0.539401
 C         2.366262         0.963461         0.836951
 O         2.208533         2.096715         1.565788
 H         5.171318        -1.262839         1.197814
 H         5.079322         0.361338         2.113651
 H         4.098426        -1.068155         2.728742
 H         2.446782        -2.034674        -0.058372
 H         1.893825        -1.440850         1.541988
 H        -0.520613        -0.101924         1.037513
 H        -0.334200         0.954331        -0.381806
 H        -0.450135        -0.783439        -0.599077
 H         4.226918         0.774773        -1.116854
 H         2.237220         2.848570         0.888718
