19
Iteration:  2057
 C         4.597875        -0.289340         1.712370
 C         3.344771        -0.296453         0.904132
 C         2.118822        -1.210510         0.790923
 C         1.424379         0.042241         0.035472
 C        -0.089304        -0.001578        -0.021966
 O         2.161642         0.182966        -1.305301
 C         3.303543         0.527041        -0.468196
 C         2.469680         0.890713         0.733776
 O         2.267347         1.942692         1.590740
 H         5.039187        -1.228242         1.676532
 H         5.242645         0.507647         1.422432
 H         4.445876        -0.060733         2.804058
 H         2.329915        -2.171481         0.188447
 H         1.843336        -1.446433         1.830722
 H        -0.643604        -0.377062         0.792831
 H        -0.557937         0.937076        -0.307720
 H        -0.292769        -0.752645        -0.698310
 H         4.198384         1.123174        -0.918213
 H         2.351157         2.770030         0.892876
