19
Iteration:  1434charge 0 multiplicity 1
 C         4.476744        -0.465437         1.685864
 C         3.280787        -0.277789         0.863976
 C         2.230616        -1.237324         0.713373
 C         1.451409        -0.036937        -0.068037
 C        -0.113005        -0.111484        -0.043070
 O         2.204408         0.199537        -1.261776
 C         3.282057         0.669682        -0.376201
 C         2.468421         1.046837         0.727984
 O         2.337658         2.029607         1.666738
 H         4.826910        -1.478161         1.583714
 H         5.263789         0.330130         1.398563
 H         4.287380        -0.216342         2.776857
 H         2.293096        -2.234110         0.206910
 H         1.621046        -1.201701         1.608734
 H        -0.401247        -0.365094         0.987132
 H        -0.686651         0.758962        -0.296344
 H        -0.345386        -0.950096        -0.695474
 H         4.194804         1.121492        -0.855839
 H         2.212583         2.782106         1.248332
