19
Iteration:  4763charge 0 multiplicity 1
 C         4.663954        -0.348626         1.650487
 C         3.360748        -0.227543         0.817151
 C         2.209518        -1.246710         0.717631
 C         1.409032        -0.124400         0.049729
 C        -0.102493        -0.047885        -0.113593
 O         2.149835         0.131331        -1.244343
 C         3.243406         0.638233        -0.381540
 C         2.439999         0.923054         0.836922
 O         2.258650         2.097339         1.634242
 H         5.470887        -1.025469         1.373928
 H         5.234723         0.658012         1.647654
 H         4.157313        -0.617492         2.602556
 H         2.381564        -2.190725         0.073587
 H         1.719749        -1.529429         1.596834
 H        -0.424406         0.273564         0.852679
 H        -0.203891         0.745150        -0.852633
 H        -0.698173        -0.939726        -0.256843
 H         4.287293         0.847733        -0.858029
 H         1.708386         2.588382         1.153312
