19
Iteration:  1030
 C         4.614313        -0.417294         1.703141
 C         3.386009        -0.259899         0.830279
 C         2.156746        -1.132113         0.825676
 C         1.405104        -0.029735         0.031884
 C        -0.085418        -0.084284        -0.167200
 O         2.178745         0.172643        -1.257367
 C         3.214017         0.614954        -0.478267
 C         2.435992         0.990105         0.731804
 O         2.302766         1.948669         1.696395
 H         4.947571        -1.469947         1.613882
 H         5.370093         0.252580         1.410992
 H         4.380837        -0.229096         2.781427
 H         2.174376        -2.110682         0.246730
 H         1.715006        -1.258585         1.816673
 H        -0.560222        -0.161153         0.844717
 H        -0.272598         0.971559        -0.427491
 H        -0.508883        -0.796132        -0.885437
 H         4.129323         1.093722        -0.855010
 H         2.259396         2.844261         1.192014
