19
Iteration:  3245charge 0 multiplicity 1
 C         4.580657        -0.361717         1.650460
 C         3.286468        -0.232227         0.935692
 C         2.255117        -1.275070         0.717006
 C         1.422174        -0.112504         0.064347
 C        -0.034388        -0.038822        -0.106670
 O         2.148694         0.157693        -1.193217
 C         3.245373         0.538436        -0.358465
 C         2.396689         0.955426         0.794793
 O         2.353854         2.143383         1.500561
 H         5.011257        -1.263006         1.248771
 H         5.162313         0.457908         1.502279
 H         4.412979        -0.457438         2.759100
 H         2.551658        -2.038842         0.044110
 H         1.590468        -1.577951         1.521298
 H        -0.495603        -0.366672         0.874954
 H        -0.310387         1.080809        -0.146194
 H        -0.438209        -0.622941        -1.010819
 H         4.096355         0.918013        -0.794747
 H         1.418350         2.634227         1.210277
