19
Iteration:  2279
 C         4.572189        -0.440835         1.682391
 C         3.389074        -0.219859         0.866108
 C         2.225188        -1.219113         0.750469
 C         1.454147        -0.047488         0.103485
 C        -0.080343         0.022454        -0.049521
 O         2.185233         0.046539        -1.206131
 C         3.267270         0.681697        -0.493552
 C         2.394188         0.954402         0.730603
 O         2.258026         2.041037         1.562781
 H         5.133299        -1.425091         1.491222
 H         5.301740         0.351180         1.758272
 H         4.091394        -0.560195         2.765676
 H         2.255554        -2.147782         0.098740
 H         1.755748        -1.503321         1.731130
 H        -0.627413        -0.081112         0.903181
 H        -0.477998         0.921847        -0.494323
 H        -0.391392        -0.724163        -0.773031
 H         4.143218         1.339768        -0.775990
 H         1.926521         2.910753         0.998681
