19
Iteration:  4415charge 0 multiplicity 1
 C         4.661376        -0.444219         1.634320
 C         3.347234        -0.167161         0.956055
 C         2.131804        -1.150511         0.798156
 C         1.434752        -0.129398         0.026980
 C        -0.045649        -0.042090        -0.082942
 O         2.198111         0.024910        -1.222408
 C         3.236403         0.705932        -0.450568
 C         2.481988         1.033753         0.776562
 O         2.159479         2.041920         1.590933
 H         5.156351        -1.082935         0.933214
 H         5.422702         0.416231         1.626775
 H         4.600305        -0.991940         2.548181
 H         2.347603        -2.040609         0.250339
 H         1.719383        -1.553390         1.718953
 H        -0.537215        -0.038011         0.907947
 H        -0.272034         0.916430        -0.685331
 H        -0.489038        -0.857831        -0.726121
 H         4.106820         0.957304        -0.989838
 H         2.103477         2.791679         1.113737
