19
Iteration:  2454
 C         4.621498        -0.364256         1.708036
 C         3.311230        -0.272706         0.898580
 C         2.155736        -1.221438         0.787130
 C         1.478001        -0.100894         0.063232
 C        -0.044200        -0.025456        -0.033375
 O         2.144781         0.134521        -1.286033
 C         3.275330         0.632311        -0.491959
 C         2.487159         0.948423         0.722845
 O         2.205782         2.084303         1.599380
 H         5.011191        -1.404070         1.482529
 H         5.264972         0.451487         1.574819
 H         4.281654        -0.250351         2.825656
 H         2.230444        -2.109319         0.233971
 H         1.531661        -1.330470         1.663270
 H        -0.574821        -0.514595         0.839519
 H        -0.476606         1.003633        -0.193285
 H        -0.345068        -0.830161        -0.834095
 H         4.249539         0.833656        -0.910147
 H         2.657886         2.760695         0.940007
