19
Iteration:  1199charge 0 multiplicity 1
 C         4.615638        -0.466269         1.711816
 C         3.343184        -0.247965         0.885275
 C         2.226218        -1.255518         0.714726
 C         1.424086        -0.035807         0.055739
 C        -0.012243         0.042807        -0.156954
 O         2.102587         0.190223        -1.188132
 C         3.241731         0.598529        -0.498206
 C         2.426531         0.940237         0.812841
 O         2.272441         2.054022         1.654446
 H         5.094460        -1.451688         1.431394
 H         5.280815         0.407910         1.634792
 H         4.588408        -0.664036         2.792096
 H         2.350151        -2.140725         0.087238
 H         1.827327        -1.647345         1.683903
 H        -0.697058        -0.091465         0.649369
 H        -0.302824         0.951310        -0.731628
 H        -0.131823        -0.855363        -0.802644
 H         3.981919         1.145198        -1.103571
 H         1.684811         2.791105         1.093402
