19
Iteration:  4759charge 0 multiplicity 1
 C         4.662423        -0.302385         1.649701
 C         3.333803        -0.192476         0.825011
 C         2.211134        -1.256012         0.711376
 C         1.414014        -0.123266         0.036193
 C        -0.083177        -0.025872        -0.123075
 O         2.149735         0.096540        -1.243361
 C         3.273892         0.649195        -0.362472
 C         2.402028         0.929313         0.823423
 O         2.288700         2.042032         1.642186
 H         5.472018        -1.104432         1.371634
 H         5.170593         0.600451         1.544298
 H         4.328764        -0.721359         2.670025
 H         2.258482        -2.084889         0.035577
 H         1.657341        -1.512244         1.671380
 H        -0.467630         0.169584         0.923283
 H        -0.284690         0.806109        -0.898068
 H        -0.727659        -0.957489        -0.205760
 H         4.172848         0.894979        -0.816624
 H         1.697673         2.810412         1.093766
