19
Iteration:  1772charge 0 multiplicity 1
 C         4.613282        -0.553021         1.731971
 C         3.382130        -0.225615         0.842081
 C         2.196089        -1.146010         0.700032
 C         1.478443        -0.040228        -0.003849
 C        -0.090517        -0.090536        -0.019075
 O         2.173735         0.123361        -1.233269
 C         3.226719         0.625233        -0.446082
 C         2.414063         0.956835         0.812342
 O         2.249121         2.161414         1.580459
 H         5.443808        -0.977577         1.222390
 H         5.008781         0.404445         2.189827
 H         4.242960        -1.301736         2.470848
 H         2.504906        -1.979181         0.065387
 H         1.712202        -1.560951         1.534847
 H        -0.354497        -0.215828         1.000294
 H        -0.427550         0.847464        -0.492346
 H        -0.534248        -0.960919        -0.504381
 H         4.077038         1.220475        -0.862706
 H         1.779033         2.913526         0.902621
