19
Iteration:  2132
 C         4.680559        -0.449911         1.650011
 C         3.387690        -0.269607         0.940718
 C         2.104087        -1.190370         0.801832
 C         1.429485        -0.032608         0.095631
 C        -0.048331        -0.025616        -0.126723
 O         2.153490         0.164367        -1.260937
 C         3.293786         0.569396        -0.438509
 C         2.499862         0.978560         0.772421
 O         2.193671         2.071943         1.577776
 H         5.333967        -1.044319         1.015144
 H         5.219676         0.534820         1.941714
 H         4.541457        -1.031550         2.588579
 H         1.987270        -2.153776         0.353164
 H         1.561293        -1.210153         1.731718
 H        -0.468004         0.030325         0.895094
 H        -0.500406         0.858887        -0.676178
 H        -0.438194        -1.036009        -0.457080
 H         4.160656         0.911319        -1.079645
 H         1.743766         2.665706         0.767056
