19
Iteration:  2189
 C         4.682119        -0.384683         1.665801
 C         3.329938        -0.211461         0.920525
 C         2.240342        -1.239034         0.799022
 C         1.436299        -0.107742         0.079062
 C        -0.091245         0.048300        -0.257782
 O         2.096435         0.007151        -1.232743
 C         3.191946         0.607445        -0.440599
 C         2.353509         0.959828         0.776271
 O         2.366344         2.101770         1.690174
 H         5.268684        -1.221025         1.270144
 H         5.098774         0.584739         1.558616
 H         4.401382        -0.632373         2.802404
 H         2.408056        -2.111007         0.113171
 H         1.785292        -1.479663         1.757152
 H        -0.576149         0.084981         0.750155
 H        -0.318093         0.991368        -0.778007
 H        -0.449296        -0.744259        -0.866181
 H         3.987350         1.049705        -0.957744
 H         2.133858         2.918943         1.022304
