19
Iteration:  3995
 C         4.576499        -0.487533         1.738233
 C         3.391298        -0.229752         0.882661
 C         2.243919        -1.246285         0.824263
 C         1.422046        -0.076032         0.045400
 C        -0.087474        -0.007400         0.049431
 O         2.181902         0.082823        -1.264160
 C         3.286444         0.705247        -0.503902
 C         2.439238         1.025319         0.652826
 O         2.159814         2.044124         1.525795
 H         5.297853        -1.164086         1.414652
 H         5.082460         0.564669         1.853691
 H         4.235897        -0.663038         2.691236
 H         2.537342        -2.264278         0.347366
 H         1.865675        -1.624780         1.733960
 H        -0.609367         0.240105         0.958397
 H        -0.309501         0.854667        -0.613985
 H        -0.487760        -0.848708        -0.596794
 H         4.072006         1.099601        -1.068073
 H         2.439013         2.831117         1.312469
