19
Iteration:  3675
 C         4.639790        -0.349690         1.577096
 C         3.288086        -0.243955         0.894257
 C         2.193411        -1.269375         0.791714
 C         1.444593        -0.021988         0.053295
 C        -0.039189        -0.015466        -0.115320
 O         2.147907         0.021509        -1.190906
 C         3.212461         0.550103        -0.391963
 C         2.396042         1.018204         0.797060
 O         2.258076         2.154537         1.569845
 H         5.372058        -1.064921         1.076770
 H         5.235150         0.535049         1.793233
 H         4.422338        -0.834461         2.550210
 H         2.406472        -2.155960         0.183324
 H         1.641672        -1.470164         1.739124
 H        -0.540134        -0.552625         0.723492
 H        -0.521131         0.898149        -0.485002
 H        -0.262046        -0.704025        -0.837054
 H         4.087836         1.029152        -0.866497
 H         2.891113         2.753160         1.279622
