19
Iteration:  3598charge 0 multiplicity 1
 C         4.643246        -0.381404         1.652178
 C         3.325849        -0.259066         0.879998
 C         2.245784        -1.316274         0.664671
 C         1.411333        -0.165186         0.078811
 C        -0.062599         0.113659        -0.060506
 O         2.192830         0.030835        -1.145063
 C         3.225815         0.681287        -0.413548
 C         2.411323         0.918083         0.829359
 O         2.176119         2.134975         1.515982
 H         5.185548        -1.356317         1.396298
 H         5.314404         0.450507         1.543432
 H         4.590021        -0.308119         2.742341
 H         2.445812        -2.050223        -0.077732
 H         1.981058        -1.744804         1.623968
 H        -0.479666         0.179679         0.975838
 H        -0.388158         0.998562        -0.598010
 H        -0.655085        -0.676995        -0.441676
 H         4.106477         1.185121        -0.967003
 H         2.439573         2.832784         0.791280
