19
Iteration:  4840charge 0 multiplicity 1
 C         4.640854        -0.403487         1.583562
 C         3.322657        -0.237308         0.896989
 C         2.170021        -1.202186         0.736758
 C         1.448263        -0.078176         0.041735
 C        -0.032230        -0.099491        -0.033727
 O         2.227993         0.092921        -1.201642
 C         3.222596         0.650558        -0.362186
 C         2.390987         1.022877         0.781014
 O         2.192057         2.071359         1.575905
 H         5.147128        -1.173552         1.039907
 H         5.316063         0.511772         1.644817
 H         4.412520        -0.634972         2.622906
 H         2.213597        -2.032371        -0.019034
 H         1.706847        -1.558641         1.606113
 H        -0.461466        -0.381597         0.916420
 H        -0.427603         0.840036        -0.342130
 H        -0.229598        -0.782074        -0.849887
 H         4.128278         1.058141        -0.825057
 H         2.371175         2.952655         0.984516
