19
Iteration:  2692
 C         4.605094        -0.444052         1.604775
 C         3.340120        -0.194893         0.939563
 C         2.194416        -1.219612         0.887369
 C         1.451689        -0.117555         0.055922
 C        -0.047604         0.068727        -0.201965
 O         2.204591        -0.026727        -1.227706
 C         3.186266         0.680137        -0.438507
 C         2.440357         1.021236         0.745975
 O         2.256489         2.088462         1.607568
 H         5.260895        -1.027341         0.875686
 H         5.407353         0.352339         1.970431
 H         4.564873        -0.941806         2.611396
 H         2.384969        -2.101334         0.126555
 H         1.704156        -1.419944         1.928614
 H        -0.573375        -0.024850         0.765349
 H        -0.374067         1.022952        -0.651436
 H        -0.481255        -0.773791        -0.675405
 H         4.072510         1.052146        -0.924846
 H         1.473884         2.606202         1.271240
