19
Iteration:  2163
 C         4.635483        -0.380597         1.559186
 C         3.291423        -0.209134         0.925609
 C         2.086815        -1.175076         0.817955
 C         1.436936        -0.062676         0.062905
 C        -0.105742        -0.013795        -0.151175
 O         2.270306         0.032807        -1.189253
 C         3.307355         0.599895        -0.398074
 C         2.401522         1.009352         0.725246
 O         2.273683         2.022765         1.646135
 H         5.195707        -0.925140         0.766787
 H         5.233843         0.611476         1.645919
 H         4.473402        -0.939528         2.426300
 H         2.023837        -2.131824         0.396859
 H         1.643349        -1.272753         1.818207
 H        -0.460015         0.124476         0.882066
 H        -0.556781         0.861009        -0.741869
 H        -0.461535        -0.956081        -0.719809
 H         4.245525         0.988675        -0.919059
 H         2.175359         2.792164         1.133044
