19
Iteration:  1987charge 0 multiplicity 1
 C         4.643594        -0.416173         1.646781
 C         3.391895        -0.224541         0.881864
 C         2.210774        -1.251856         0.849743
 C         1.386358        -0.146182         0.044561
 C        -0.082041         0.032399        -0.267734
 O         2.095075         0.039445        -1.160724
 C         3.251711         0.633122        -0.471289
 C         2.425222         0.986360         0.829142
 O         2.307346         2.120471         1.641048
 H         5.222976        -1.144901         1.021513
 H         5.156366         0.611369         1.754553
 H         4.549549        -0.856317         2.592562
 H         2.309301        -2.053481         0.179699
 H         1.752594        -1.600724         1.790391
 H        -0.686450         0.060624         0.674187
 H        -0.177158         0.977147        -0.809975
 H        -0.406013        -0.947812        -0.758366
 H         3.851261         1.299161        -0.990462
 H         2.117357         2.996172         1.202835
