19
Iteration:  3377
 C         4.713800        -0.393603         1.590336
 C         3.354463        -0.266960         0.978141
 C         2.126242        -1.247306         0.760897
 C         1.455285        -0.079638        -0.021314
 C         0.019840         0.062557        -0.113559
 O         2.187763         0.093159        -1.219320
 C         3.221776         0.566027        -0.397081
 C         2.410475         0.952883         0.793792
 O         2.183251         2.106687         1.594845
 H         5.360315        -1.233786         1.336007
 H         5.273838         0.458880         1.401930
 H         4.537774        -0.518543         2.666874
 H         2.195678        -2.236340         0.444603
 H         1.704035        -1.242541         1.754644
 H        -0.457649         0.323327         0.859001
 H        -0.312257         0.869957        -0.868132
 H        -0.448801        -0.881378        -0.464781
 H         4.077622         1.022362        -1.020370
 H         1.371595         2.373902         1.279519
