19
Iteration:  3584charge 0 multiplicity 1
 C         4.749642        -0.351890         1.648760
 C         3.424886        -0.300729         0.926886
 C         2.228119        -1.332793         0.711405
 C         1.398137        -0.061505         0.017283
 C        -0.094242         0.092024        -0.054105
 O         2.187582         0.088264        -1.259628
 C         3.185057         0.559269        -0.306353
 C         2.312474         0.903725         0.815650
 O         2.209202         2.140744         1.527765
 H         5.291382        -1.269179         1.370570
 H         5.329160         0.443811         1.259907
 H         4.557048        -0.322060         2.761264
 H         2.367692        -2.257574         0.083903
 H         1.685335        -1.641962         1.681359
 H        -0.437773         0.315756         0.908121
 H        -0.089934         0.930082        -0.720327
 H        -0.550582        -0.722141        -0.457071
 H         3.975542         1.131377        -0.721493
 H         1.930719         2.887937         0.922056
