19
Iteration:  2581
 C         4.558571        -0.469049         1.791862
 C         3.384760        -0.144347         0.868490
 C         2.245773        -1.187060         0.738604
 C         1.473255        -0.078136         0.089699
 C        -0.059951        -0.025818        -0.045426
 O         2.147384         0.074826        -1.243591
 C         3.220848         0.592969        -0.503228
 C         2.419968         0.977780         0.747490
 O         2.316042         2.091778         1.546226
 H         4.928401        -1.455000         1.565874
 H         5.365039         0.299345         1.636809
 H         3.977829        -0.509404         2.650966
 H         2.448678        -1.957050        -0.072952
 H         1.725558        -1.463586         1.664592
 H        -0.455342        -0.039979         0.974194
 H        -0.377109         0.888015        -0.480000
 H        -0.486045        -0.785785        -0.658328
 H         4.033246         1.065163        -1.084153
 H         1.373970         2.559308         1.202047
