19
Iteration:  1216charge 0 multiplicity 1
 C         4.612386        -0.457388         1.734592
 C         3.398968        -0.285510         0.866974
 C         2.206447        -1.170313         0.676215
 C         1.403520        -0.026479         0.044376
 C        -0.077748        -0.066824        -0.131973
 O         2.094469         0.214829        -1.248535
 C         3.251427         0.651266        -0.345572
 C         2.458971         0.929582         0.771466
 O         2.281252         1.996869         1.605855
 H         5.066166        -1.439273         1.659737
 H         5.475304         0.245191         1.527701
 H         4.177061        -0.307310         2.779558
 H         2.372645        -1.972991        -0.120180
 H         1.718363        -1.465325         1.582838
 H        -0.539448        -0.122281         0.925271
 H        -0.470152         0.896320        -0.446173
 H        -0.505945        -0.843742        -0.775313
 H         4.159242         1.095812        -0.673713
 H         2.345079         2.895162         0.922246
