19
Iteration:  2547charge 0 multiplicity 1
 C         4.686759        -0.434756         1.623198
 C         3.393509        -0.280306         0.925018
 C         2.117585        -1.201118         0.816889
 C         1.398323        -0.090370         0.102430
 C        -0.081006         0.035410        -0.085266
 O         2.228744         0.160107        -1.189349
 C         3.297856         0.602781        -0.402527
 C         2.458994         0.912027         0.739133
 O         2.163343         2.074825         1.459007
 H         5.312865        -1.103066         1.079061
 H         5.220499         0.550878         1.900790
 H         4.571745        -0.799184         2.604387
 H         2.166590        -2.164401         0.226804
 H         1.567015        -1.442605         1.736453
 H        -0.527214         0.170304         0.888026
 H        -0.318027         0.876015        -0.678317
 H        -0.462065        -0.878355        -0.396569
 H         4.147017         1.056538        -0.814253
 H         1.645035         2.712088         1.002137
