19
Iteration:  4554charge 0 multiplicity 1
 C         4.668836        -0.287135         1.623824
 C         3.333009        -0.227632         0.872034
 C         2.174146        -1.258288         0.824907
 C         1.420756        -0.079310         0.017144
 C        -0.069182         0.006084        -0.180528
 O         2.112807         0.087697        -1.240106
 C         3.296767         0.569528        -0.463239
 C         2.481780         0.971160         0.798795
 O         2.250810         2.028526         1.688687
 H         5.531444        -0.813155         1.196113
 H         5.202347         0.689142         1.541233
 H         4.422274        -0.613534         2.655693
 H         2.297451        -2.302772         0.291759
 H         1.673008        -1.628791         1.739530
 H        -0.392583         0.222389         0.845892
 H        -0.349807         0.828723        -0.866672
 H        -0.690739        -0.829521        -0.450312
 H         4.104177         0.976849        -0.949025
 H         1.571582         2.536949         1.396512
