19
Iteration:  2453charge 0 multiplicity 1
 C         4.610104        -0.365360         1.703473
 C         3.307545        -0.269934         0.903684
 C         2.160891        -1.221010         0.788287
 C         1.472143        -0.092931         0.051989
 C        -0.037727        -0.027557        -0.028686
 O         2.147603         0.133918        -1.286693
 C         3.272328         0.623988        -0.492710
 C         2.486922         0.952661         0.724066
 O         2.208553         2.082119         1.601579
 H         5.008754        -1.403622         1.510639
 H         5.262881         0.451818         1.567656
 H         4.307739        -0.252933         2.838432
 H         2.258452        -2.127913         0.230318
 H         1.544900        -1.371373         1.655691
 H        -0.559602        -0.526430         0.874611
 H        -0.472377         1.000558        -0.191037
 H        -0.344291        -0.810528        -0.848235
 H         4.225469         0.848409        -0.901638
 H         2.659667         2.800589         0.913639
