19
Iteration:   699charge 0 multiplicity 1
 C         4.582408        -0.489265         1.773381
 C         3.379481        -0.259390         0.860134
 C         2.194981        -1.161547         0.739624
 C         1.403678        -0.019290         0.038211
 C        -0.048895        -0.019254        -0.081200
 O         2.161628         0.081798        -1.238177
 C         3.247129         0.671445        -0.476263
 C         2.441379         1.019212         0.737422
 O         2.247105         2.020991         1.622544
 H         5.126153        -1.390689         1.461687
 H         5.344767         0.447633         1.592731
 H         4.306116        -0.684754         2.835331
 H         2.359681        -2.139305         0.182233
 H         1.713658        -1.324057         1.743162
 H        -0.617390        -0.175648         0.872172
 H        -0.401032         0.828724        -0.686841
 H        -0.258089        -0.903162        -0.740498
 H         3.916776         1.136122        -1.169699
 H         2.424869         2.918613         1.157508
