19
Iteration:  1114
 C         4.665891        -0.451226         1.664937
 C         3.346329        -0.265401         0.880904
 C         2.185376        -1.257103         0.657465
 C         1.407078        -0.042412         0.055405
 C        -0.055334         0.074260        -0.081829
 O         2.096035         0.115033        -1.224361
 C         3.298713         0.619747        -0.346855
 C         2.441097         0.915201         0.781265
 O         2.217309         2.025523         1.582740
 H         5.612203        -0.907952         1.284871
 H         5.032619         0.676810         2.058763
 H         4.247418        -0.832621         2.608169
 H         2.261467        -2.125073         0.020805
 H         1.892054        -1.461056         1.777841
 H        -0.654824         0.089992         0.798240
 H        -0.239494         0.981523        -0.719390
 H        -0.394127        -0.765039        -0.715574
 H         4.100284         1.299464        -0.668580
 H         2.511662         2.931575         0.977046
