19
Iteration:  2956charge 0 multiplicity 1
 C         4.577069        -0.514516         1.754224
 C         3.391056        -0.209250         0.871562
 C         2.212077        -1.142402         0.802362
 C         1.449073        -0.002658         0.007916
 C         0.037684        -0.017964         0.072732
 O         2.171606         0.098647        -1.300587
 C         3.284805         0.617243        -0.495284
 C         2.472782         0.979901         0.675217
 O         2.075916         2.028647         1.546515
 H         5.302755        -1.082904         1.230736
 H         5.232292         0.381916         2.109574
 H         4.199834        -1.120540         2.660271
 H         2.030194        -2.095248         0.340346
 H         1.780569        -1.061549         1.767299
 H        -0.364736         0.060001         1.113205
 H        -0.448764         0.678191        -0.689202
 H        -0.287665        -1.083004        -0.261921
 H         4.111153         1.111614        -1.130523
 H         2.245059         2.912043         1.144660
