19
Iteration:  1061charge 0 multiplicity 1
 C         4.528084        -0.428829         1.818752
 C         3.340215        -0.237585         0.832146
 C         2.177416        -1.181410         0.618642
 C         1.424854         0.019335         0.038722
 C        -0.042606        -0.112425        -0.030197
 O         2.173858         0.201620        -1.229824
 C         3.236499         0.592750        -0.475063
 C         2.450717         0.955125         0.737768
 O         2.358095         2.034566         1.616816
 H         4.867443        -1.391669         1.589730
 H         5.292866         0.291124         1.575840
 H         4.255698        -0.404809         2.850150
 H         2.147328        -2.124302        -0.037198
 H         1.733149        -1.549970         1.624435
 H        -0.332167        -0.328244         1.016871
 H        -0.431654         0.927876        -0.255978
 H        -0.415154        -0.922489        -0.700624
 H         4.140556         0.961935        -0.957100
 H         1.714178         2.744614         1.102224
