19
Iteration:  4123
 C         4.629696        -0.346210         1.802379
 C         3.407953        -0.298709         0.876141
 C         2.176799        -1.239157         0.698131
 C         1.388651        -0.017472        -0.009381
 C        -0.101907        -0.053147        -0.029986
 O         2.117877         0.064972        -1.255202
 C         3.281361         0.619628        -0.484797
 C         2.418929         0.951702         0.721119
 O         2.298747         2.109790         1.608953
 H         5.270104        -1.260925         1.715704
 H         5.135769         0.503960         1.652918
 H         4.289514        -0.269877         2.877048
 H         2.325882        -1.992360        -0.050274
 H         1.860589        -1.561671         1.691861
 H        -0.358362        -0.185617         0.993485
 H        -0.464848         0.893349        -0.441874
 H        -0.428925        -0.869672        -0.640266
 H         4.168605         1.096412        -0.899424
 H         1.976195         2.710226         1.045514
