19
Iteration:  4975charge 0 multiplicity 1
 C         4.658570        -0.387018         1.686346
 C         3.368456        -0.242634         0.930683
 C         2.300883        -1.267707         0.615210
 C         1.363054        -0.155982         0.051988
 C        -0.112210        -0.031610        -0.053623
 O         2.128861         0.112472        -1.211523
 C         3.260354         0.575512        -0.423586
 C         2.428182         0.966519         0.789155
 O         2.251567         2.150551         1.589939
 H         5.291581        -1.137816         1.231359
 H         5.389994         0.425668         1.790806
 H         4.277809        -0.441957         2.726509
 H         2.723876        -2.019498        -0.000983
 H         1.667508        -1.551935         1.552903
 H        -0.528756         0.403198         0.866399
 H        -0.290819         0.674326        -0.884445
 H        -0.754732        -0.869246        -0.228054
 H         4.050819         1.309956        -0.774843
 H         1.737642         2.771386         1.004651
