19
Iteration:  1368charge 0 multiplicity 1
 C         4.620973        -0.434764         1.599841
 C         3.344521        -0.318912         0.923990
 C         2.153131        -1.277028         0.699204
 C         1.440461        -0.054299         0.057343
 C        -0.012236         0.066922        -0.109251
 O         2.179513         0.208766        -1.188490
 C         3.258776         0.650387        -0.364066
 C         2.358767         0.887242         0.783855
 O         2.244801         2.042403         1.561973
 H         5.460121        -0.749613         0.976756
 H         4.966187         0.640273         2.021119
 H         4.525918        -1.045899         2.559849
 H         2.278863        -2.286622         0.285917
 H         1.649452        -1.359381         1.659541
 H        -0.592385        -0.091911         0.808351
 H        -0.287743         0.958662        -0.614021
 H        -0.324283        -0.760372        -0.719064
 H         4.287702         0.963619        -0.590129
 H         2.130561         2.739117         1.036913
