19
Iteration:  2020
 C         4.575104        -0.306037         1.638505
 C         3.299804        -0.208445         0.879300
 C         2.169418        -1.206226         0.846671
 C         1.381676        -0.062736         0.043230
 C        -0.103987         0.025653        -0.185777
 O         2.187403        -0.004397        -1.239856
 C         3.267785         0.606519        -0.458782
 C         2.424317         0.967320         0.744096
 O         2.396559         2.011530         1.715098
 H         5.094084        -1.248751         1.265488
 H         5.348213         0.508025         1.317576
 H         4.410122        -0.322887         2.687038
 H         2.290524        -2.056719         0.246573
 H         1.752922        -1.463188         1.851328
 H        -0.607162        -0.185311         0.794891
 H        -0.396398         0.991043        -0.653828
 H        -0.209986        -0.746479        -1.057889
 H         3.975570         1.162397        -0.996596
 H         1.693056         2.710296         1.352449
