19
Iteration:  3410charge 0 multiplicity 1
 C         4.614318        -0.488922         1.675186
 C         3.397244        -0.158204         0.845649
 C         2.224487        -1.182166         0.793719
 C         1.453191        -0.087415         0.114491
 C        -0.105170         0.032140        -0.055035
 O         2.218973         0.044735        -1.250256
 C         3.266621         0.617698        -0.517795
 C         2.482253         1.007058         0.713388
 O         2.124833         2.036625         1.630060
 H         5.003269        -1.499444         1.388935
 H         5.309300         0.281223         1.801931
 H         4.224887        -0.539284         2.730328
 H         2.329253        -2.116242         0.364845
 H         2.019626        -1.185154         1.854126
 H        -0.704036         0.010829         0.898505
 H        -0.298569         1.038954        -0.560838
 H        -0.331982        -0.757007        -0.767315
 H         4.109167         1.039163        -1.178856
 H         1.702962         2.801100         1.047232
