19
Iteration:  2684charge 0 multiplicity 1
 C         4.691406        -0.389719         1.616713
 C         3.286450        -0.225085         0.937086
 C         2.166905        -1.210970         0.803023
 C         1.443113        -0.120211         0.030120
 C        -0.028613         0.047181        -0.188615
 O         2.215213        -0.018978        -1.165014
 C         3.186835         0.651250        -0.461662
 C         2.354055         1.003580         0.766785
 O         2.300795         2.114174         1.621683
 H         5.189605        -1.261173         1.074254
 H         5.209369         0.561297         1.738985
 H         4.515448        -0.923690         2.650358
 H         2.353991        -2.239889         0.415738
 H         1.768550        -1.598172         1.766931
 H        -0.593459         0.047653         0.717269
 H        -0.194603         1.038143        -0.646039
 H        -0.445304        -0.705585        -0.880290
 H         3.958570         1.075721        -1.009391
 H         1.642266         2.671476         1.319214
