19
Iteration:    57charge 0 multiplicity 1
 C         4.437940        -0.351676         1.818616
 C         3.386648        -0.267639         0.739445
 C         2.166079        -1.242974         0.788781
 C         1.406655        -0.156098         0.059616
 C        -0.023872        -0.045461         0.106225
 O         2.195153         0.168826        -1.274781
 C         3.288496         0.691986        -0.451741
 C         2.357274         0.894553         0.718390
 O         2.335532         2.079666         1.370129
 H         5.277537        -1.108391         1.646000
 H         4.852225         0.589831         2.062641
 H         3.905451        -0.629844         2.758947
 H         2.079428        -2.236659         0.400948
 H         1.908974        -1.274148         1.809470
 H        -0.462040        -0.263701         1.058678
 H        -0.357473         0.948582        -0.239088
 H        -0.428242        -0.723925        -0.657575
 H         4.011501         1.421920        -0.817792
 H         3.348476         2.289251         1.572755
