19
Iteration:  2165
 C         4.637094        -0.364147         1.560633
 C         3.289094        -0.201719         0.930729
 C         2.086223        -1.173532         0.812959
 C         1.434128        -0.082755         0.050077
 C        -0.113772        -0.008212        -0.151079
 O         2.274727         0.027025        -1.175620
 C         3.278046         0.603881        -0.411994
 C         2.425964         0.999136         0.725707
 O         2.279882         2.025486         1.642451
 H         5.112209        -0.973547         0.813396
 H         5.250634         0.596432         1.669329
 H         4.502774        -0.998396         2.470097
 H         2.059730        -2.099877         0.321649
 H         1.725185        -1.255900         1.804915
 H        -0.528253         0.099400         0.869106
 H        -0.505322         0.875793        -0.776311
 H        -0.462468        -0.914371        -0.712979
 H         4.200011         0.995621        -0.868946
 H         2.192379         2.820072         1.233643
