19
Iteration:  3774charge 0 multiplicity 1
 C         4.527609        -0.394150         1.713773
 C         3.383057        -0.154733         0.841620
 C         2.249141        -1.100383         0.702227
 C         1.450259        -0.054849         0.023764
 C        -0.038241        -0.025052         0.050421
 O         2.177830         0.055014        -1.254409
 C         3.269356         0.549810        -0.458057
 C         2.398606         1.006103         0.707132
 O         2.235640         1.957694         1.588258
 H         5.042940        -1.365634         1.536531
 H         5.390530         0.334618         1.685590
 H         4.099433        -0.573350         2.701180
 H         2.332904        -2.131242         0.200187
 H         1.783986        -1.219313         1.747357
 H        -0.621972         0.015858         1.067351
 H        -0.271938         0.888343        -0.562917
 H        -0.541805        -0.846142        -0.384618
 H         3.971217         1.162381        -0.922902
 H         2.182842         2.866940         1.106186
