19
Iteration:    22
 C         4.580663        -0.409933         1.878466
 C         3.331652        -0.166158         1.015122
 C         2.173974        -1.186619         0.655152
 C         1.412949         0.013845         0.137859
 C        -0.085612        -0.037075         0.007097
 O         2.075806         0.018124        -1.250741
 C         3.267199         0.559972        -0.593483
 C         2.494976         1.018158         0.637321
 O         2.296238         2.121807         1.434219
 H         5.232748        -1.123202         1.425212
 H         5.202649         0.485888         2.051906
 H         4.315439        -0.784548         2.858230
 H         2.502960        -1.734087        -0.129392
 H         1.846289        -1.766059         1.481872
 H        -0.602901        -0.395052         0.910671
 H        -0.545058         0.876039        -0.376849
 H        -0.159590        -0.853009        -0.725548
 H         4.126000         0.794893        -1.204769
 H         2.869631         2.023901         2.402817
