19
Iteration:  4358
 C         4.679704        -0.266720         1.704244
 C         3.348256        -0.311567         1.003100
 C         2.132730        -1.287309         0.793144
 C         1.408740        -0.054034         0.032349
 C        -0.021513         0.077826        -0.124475
 O         2.119312         0.091614        -1.331302
 C         3.213261         0.620804        -0.433864
 C         2.420466         0.897092         0.748019
 O         2.302603         2.004568         1.623151
 H         5.311310        -1.000750         1.209085
 H         5.127549         0.827663         1.548740
 H         4.756688        -0.481335         2.778676
 H         2.417233        -2.113340         0.109146
 H         1.822612        -1.527910         1.815231
 H        -0.687453         0.133021         0.821909
 H        -0.346005         0.893885        -0.842298
 H        -0.261680        -1.000026        -0.424294
 H         4.041532         1.157424        -0.973684
 H         1.745146         2.714018         1.110384
