19
Iteration:  3639charge 0 multiplicity 1
 C         4.675547        -0.456596         1.753313
 C         3.470974        -0.265594         0.844579
 C         2.151577        -1.148030         0.814802
 C         1.448375        -0.065613        -0.038665
 C        -0.115372        -0.076042         0.002598
 O         2.122404         0.118824        -1.271945
 C         3.242105         0.619669        -0.520162
 C         2.534147         0.988116         0.735124
 O         2.139159         2.093060         1.556904
 H         5.383211        -1.249390         1.410784
 H         5.151017         0.456801         1.911053
 H         4.178721        -0.815736         2.718556
 H         2.214479        -2.227470         0.491920
 H         1.483283        -1.097395         1.762067
 H        -0.382863        -0.263011         1.040386
 H        -0.612868         0.881431        -0.159306
 H        -0.439669        -0.819824        -0.732924
 H         4.132767         1.023398        -1.102850
 H         2.674603         2.832737         1.482711
