19
Iteration:  4545
 C         4.673947        -0.280638         1.629846
 C         3.360358        -0.276567         0.888076
 C         2.200894        -1.267846         0.807814
 C         1.433839        -0.108299         0.013352
 C        -0.097586         0.001803        -0.160907
 O         2.118048         0.117676        -1.217859
 C         3.262440         0.549238        -0.464224
 C         2.480613         1.021101         0.714416
 O         2.259599         2.013906         1.713949
 H         5.338504        -1.038324         1.295188
 H         4.875925         0.857221         1.684906
 H         4.607310        -0.452910         2.691811
 H         2.201029        -2.159705         0.130821
 H         1.697256        -1.154773         1.744970
 H        -0.523769         0.234562         0.809061
 H        -0.312134         0.935234        -0.771075
 H        -0.526184        -0.952232        -0.543014
 H         4.142644         0.808400        -0.976706
 H         1.545844         2.407720         1.349967
