19
Iteration:  2900
 C         4.703600        -0.364330         1.683197
 C         3.355310        -0.332124         0.948106
 C         2.199394        -1.277028         0.726795
 C         1.420012        -0.123249         0.027503
 C        -0.065785         0.022835        -0.128003
 O         2.138064         0.153588        -1.150270
 C         3.197639         0.609490        -0.337070
 C         2.373772         0.907868         0.860190
 O         2.300517         2.125723         1.440043
 H         5.314080        -1.064123         1.149115
 H         5.112236         0.785291         1.667222
 H         4.444964        -0.656222         2.712080
 H         2.310942        -1.997757        -0.083624
 H         1.811312        -1.871409         1.538805
 H        -0.463551        -0.002781         0.951197
 H        -0.268104         1.066472        -0.625616
 H        -0.559430        -0.798288        -0.744185
 H         4.053439         1.171865        -0.811889
 H         1.879079         2.834754         0.739203
