19
Iteration:  2121charge 0 multiplicity 1
 C         4.663471        -0.499723         1.688394
 C         3.364183        -0.180852         0.897016
 C         2.131465        -1.240229         0.780213
 C         1.409509        -0.050380         0.071410
 C        -0.083638        -0.006145        -0.059068
 O         2.149791         0.140192        -1.158424
 C         3.304467         0.651078        -0.486229
 C         2.457543         0.935497         0.764932
 O         2.230169         2.055368         1.494354
 H         5.359387        -1.153886         1.183740
 H         5.252721         0.486292         1.947864
 H         4.446856        -0.970306         2.694410
 H         2.352391        -2.095398         0.167686
 H         1.773742        -1.465991         1.784295
 H        -0.630548         0.139386         0.876858
 H        -0.250756         0.877273        -0.775416
 H        -0.471446        -0.901066        -0.679534
 H         4.266057         1.081201        -0.948725
 H         1.715704         2.824226         0.986646
