19
Iteration:  3130charge 0 multiplicity 1
 C         4.601388        -0.423528         1.677474
 C         3.349942        -0.265859         0.921866
 C         2.242812        -1.278188         0.679527
 C         1.434395        -0.090010         0.122451
 C        -0.044501         0.037005        -0.039653
 O         2.124893         0.189868        -1.199209
 C         3.296815         0.623026        -0.363056
 C         2.406416         0.867379         0.839354
 O         2.213160         2.094678         1.397915
 H         5.292208        -1.151995         1.259673
 H         5.083349         0.666293         1.916894
 H         4.452747        -0.685750         2.710499
 H         2.389715        -2.135474        -0.045768
 H         1.918809        -1.620518         1.657067
 H        -0.546503         0.241132         0.922307
 H        -0.309187         0.882169        -0.721934
 H        -0.540640        -0.906441        -0.448648
 H         4.175602         1.094043        -0.705337
 H         2.083390         2.687127         0.710938
