19
Iteration:  2629charge 0 multiplicity 1
 C         4.614809        -0.198500         1.772671
 C         3.323343        -0.329592         0.899012
 C         2.103042        -1.206873         0.728698
 C         1.417504        -0.101598         0.016952
 C        -0.052716        -0.072432        -0.089584
 O         2.088859         0.168454        -1.268005
 C         3.267058         0.548899        -0.430568
 C         2.473150         0.919306         0.734303
 O         2.343959         2.026680         1.602251
 H         4.999422        -1.254986         1.745569
 H         5.247749         0.379104         1.223215
 H         4.174467        -0.008769         2.799742
 H         2.280541        -2.098634         0.085100
 H         1.724281        -1.267331         1.778095
 H        -0.448181        -0.349100         0.876840
 H        -0.404837         0.930241        -0.428947
 H        -0.330075        -0.700814        -0.954962
 H         4.136291         1.003548        -0.834192
 H         2.796671         2.791450         1.274177
