19
Iteration:  1325
 C         4.680902        -0.414142         1.551403
 C         3.275399        -0.231068         0.938815
 C         2.171866        -1.226410         0.808498
 C         1.430004        -0.041557         0.007099
 C        -0.084466         0.138612        -0.157102
 O         2.224740         0.036099        -1.238872
 C         3.299467         0.627933        -0.395003
 C         2.380991         1.025104         0.756486
 O         2.191295         1.932968         1.737193
 H         5.405097        -0.936287         0.931834
 H         5.209909         0.617622         1.632588
 H         4.542649        -0.783310         2.621271
 H         2.383103        -2.091253         0.168902
 H         1.702412        -1.604593         1.672216
 H        -0.662183         0.048250         0.763823
 H        -0.186195         1.003842        -0.746747
 H        -0.401251        -0.656732        -0.805163
 H         4.207619         0.834744        -0.988496
 H         2.146568         2.776538         1.155275
