19
Iteration:  3054
 C         4.669365        -0.319881         1.710450
 C         3.373639        -0.276119         0.804950
 C         2.084570        -1.142112         0.858670
 C         1.422171        -0.046146         0.051843
 C        -0.044161        -0.085674        -0.134174
 O         2.147569         0.044843        -1.279141
 C         3.187897         0.613803        -0.478259
 C         2.474915         0.958605         0.742833
 O         2.298568         2.022124         1.681348
 H         5.159678        -1.193311         1.515666
 H         5.312062         0.598935         1.468909
 H         4.492789        -0.319148         2.758172
 H         2.089418        -2.133669         0.405047
 H         1.594544        -1.045899         1.801726
 H        -0.769300        -0.509204         0.587429
 H        -0.516708         0.927174        -0.359660
 H        -0.068076        -0.632116        -1.174584
 H         4.016072         1.011069        -0.964442
 H         2.389820         3.048177         1.343338
