19
Iteration:   198
 C         4.588579        -0.467862         1.811105
 C         3.386441        -0.298176         0.874043
 C         2.195094        -1.244769         0.694239
 C         1.407064        -0.078776         0.016744
 C        -0.097970        -0.029260         0.003390
 O         2.185661         0.105906        -1.275084
 C         3.227076         0.674221        -0.382886
 C         2.392823         0.936236         0.805585
 O         2.312084         2.222552         1.332735
 H         5.272443        -1.209879         1.397755
 H         5.078903         0.456483         2.022825
 H         4.232537        -0.818655         2.778103
 H         2.261998        -2.262934         0.060703
 H         1.739554        -1.610897         1.652794
 H        -0.511226        -0.184716         0.991449
 H        -0.463661         0.968270        -0.323209
 H        -0.477547        -0.757356        -0.726832
 H         4.140856         1.285182        -0.598739
 H         2.432928         2.248411         2.427458
