19
Iteration:  2928
 C         4.581193        -0.492332         1.730209
 C         3.345117        -0.244333         0.915052
 C         2.266745        -1.229313         0.708255
 C         1.420251        -0.077413         0.023034
 C        -0.097422         0.000686         0.060159
 O         2.257522         0.082230        -1.256583
 C         3.271642         0.638601        -0.417700
 C         2.426822         0.989189         0.739719
 O         2.150850         2.140191         1.498369
 H         5.353607        -0.960882         1.017837
 H         5.079628         0.373735         1.971053
 H         4.217431        -1.035770         2.602514
 H         2.310939        -2.043631        -0.073787
 H         1.860197        -1.642689         1.692927
 H        -0.383543         0.060338         1.105130
 H        -0.422017         0.767274        -0.588718
 H        -0.581989        -0.910337        -0.215168
 H         4.081113         1.077816        -0.902939
 H         2.236822         2.997393         0.907203
