19
Iteration:  1875charge 0 multiplicity 1
 C         4.656734        -0.305954         1.718217
 C         3.408775        -0.299536         0.861488
 C         2.126217        -1.249976         0.766441
 C         1.450709        -0.101848         0.054528
 C        -0.064677         0.022521        -0.146925
 O         2.107500         0.145959        -1.242375
 C         3.254701         0.579118        -0.497910
 C         2.464659         0.976330         0.724478
 O         2.263660         1.967062         1.665717
 H         5.123538        -1.343547         1.764979
 H         5.351537         0.456325         1.491733
 H         4.347424        -0.076474         2.769367
 H         2.226466        -2.143246         0.196345
 H         1.849365        -1.368866         1.781202
 H        -0.710764        -0.001712         0.805020
 H        -0.265420         1.081968        -0.341766
 H        -0.476928        -0.731038        -0.877104
 H         4.008132         1.187466        -1.083932
 H         1.903235         2.935083         1.445870
