19
Iteration:   496charge 0 multiplicity 1
 C         4.686049        -0.450821         1.634105
 C         3.357546        -0.142580         0.886545
 C         2.111175        -1.099992         0.871570
 C         1.437593        -0.027743        -0.007695
 C        -0.075509        -0.015756        -0.258866
 O         2.200271         0.014071        -1.235438
 C         3.264334         0.563603        -0.476697
 C         2.346057         1.011352         0.763550
 O         2.271931         2.000585         1.742704
 H         5.049586        -1.448621         1.167245
 H         5.408402         0.378047         1.588023
 H         4.465338        -0.569175         2.743262
 H         2.346286        -2.074522         0.454700
 H         1.626238        -1.178169         1.800280
 H        -0.473304        -0.094300         0.750336
 H        -0.539941         0.917540        -0.633967
 H        -0.384978        -0.930013        -0.769535
 H         3.984099         1.102633        -1.106345
 H         2.295196         2.863276         1.433507
