19
Iteration:  1779charge 0 multiplicity 1
 C         4.608229        -0.520766         1.732853
 C         3.423580        -0.209909         0.837191
 C         2.239231        -1.202768         0.708280
 C         1.423114        -0.055972         0.013648
 C        -0.055786        -0.087541        -0.079367
 O         2.122726         0.131435        -1.215828
 C         3.217159         0.671278        -0.393783
 C         2.442508         0.999594         0.800859
 O         2.264402         2.124490         1.563491
 H         5.395930        -1.138926         1.179440
 H         5.046927         0.309179         2.346641
 H         4.252586        -1.223950         2.432533
 H         2.075063        -2.064580        -0.011441
 H         1.816565        -1.443870         1.788115
 H        -0.538670        -0.092629         0.936603
 H        -0.414211         0.835786        -0.484929
 H        -0.385487        -0.986224        -0.612412
 H         4.066518         1.054435        -0.995507
 H         1.776993         2.796968         0.913289
