19
Iteration:  4317
 C         4.461892        -0.336317         1.759065
 C         3.363983        -0.209062         0.781714
 C         2.257630        -1.275485         0.756464
 C         1.422816        -0.002360         0.080202
 C        -0.133744        -0.053829        -0.018989
 O         2.200123         0.057201        -1.256129
 C         3.292281         0.644432        -0.510190
 C         2.421609         1.005556         0.728474
 O         2.320094         2.011940         1.606361
 H         5.069816        -1.199100         1.589957
 H         5.186702         0.488913         1.505857
 H         4.153870        -0.413746         2.786036
 H         2.241746        -2.120755         0.101649
 H         1.892951        -1.601240         1.775993
 H        -0.616993        -0.372982         0.919090
 H        -0.534538         0.946847        -0.344322
 H        -0.423393        -0.918506        -0.648781
 H         4.222843         1.211233        -0.832094
 H         2.307676         2.857221         1.109823
