19
Iteration:  3594charge 0 multiplicity 1
 C         4.681140        -0.375945         1.663338
 C         3.345769        -0.282477         0.893965
 C         2.234108        -1.333572         0.667972
 C         1.418167        -0.137114         0.055731
 C        -0.075948         0.107246        -0.060376
 O         2.198814         0.039184        -1.164091
 C         3.220558         0.665007        -0.411709
 C         2.362234         0.919209         0.841441
 O         2.186072         2.154082         1.523280
 H         5.203183        -1.283159         1.420987
 H         5.328127         0.461941         1.355014
 H         4.582399        -0.365327         2.794323
 H         2.415666        -2.150969        -0.096965
 H         2.044989        -1.742339         1.710001
 H        -0.404505         0.321418         0.936004
 H        -0.385764         1.016885        -0.575021
 H        -0.652818        -0.707591        -0.507656
 H         4.014358         1.137787        -0.900334
 H         2.316830         2.728251         0.807417
