19
Iteration:  2203
 C         4.599804        -0.306979         1.711642
 C         3.394880        -0.267750         0.838947
 C         2.213064        -1.286355         0.751562
 C         1.337083        -0.121512         0.071945
 C        -0.037028         0.027405        -0.198035
 O         2.079158         0.133322        -1.180687
 C         3.202265         0.548671        -0.436110
 C         2.435200         0.937450         0.819947
 O         2.370815         2.104501         1.603254
 H         5.237336        -1.211738         1.413773
 H         5.408117         0.401860         1.625489
 H         4.321048        -0.348233         2.836361
 H         2.317012        -2.341835         0.198963
 H         1.874383        -1.615445         1.817816
 H        -0.753987         0.007849         0.625281
 H        -0.160264         0.960240        -0.690203
 H        -0.280545        -0.723400        -0.944399
 H         4.012334         1.128228        -0.962160
 H         1.939585         2.826549         1.094802
