19
Iteration:   239charge 0 multiplicity 1
 C         4.469753        -0.343845         1.861548
 C         3.314516        -0.251117         0.893647
 C         2.193088        -1.247721         0.662123
 C         1.414606        -0.016365         0.107917
 C        -0.075945        -0.089190        -0.038546
 O         2.098256         0.099372        -1.295349
 C         3.214256         0.642819        -0.481322
 C         2.464482         0.926044         0.739203
 O         2.488560         2.155058         1.463238
 H         5.234930        -1.078543         1.597197
 H         5.015601         0.677723         2.014296
 H         4.133078        -0.586908         2.901547
 H         2.247568        -2.121639        -0.023711
 H         1.767261        -1.652809         1.600932
 H        -0.578587        -0.530254         0.820985
 H        -0.524677         0.885746        -0.342291
 H        -0.203240        -0.745926        -0.922718
 H         4.034048         0.957452        -1.114762
 H         2.410377         1.946816         2.326283
