19
Iteration:  4988charge 0 multiplicity 1
 C         4.700469        -0.423156         1.692151
 C         3.390840        -0.188021         0.905609
 C         2.336093        -1.280505         0.707080
 C         1.408244        -0.085484        -0.021759
 C        -0.171005        -0.006443        -0.113949
 O         2.130659         0.087179        -1.208408
 C         3.192524         0.589883        -0.387822
 C         2.381619         0.974946         0.841133
 O         2.254689         2.168880         1.590354
 H         5.251672        -1.376198         1.422246
 H         5.207693         0.495708         1.621481
 H         4.524276        -0.796603         2.727358
 H         2.470546        -1.940951        -0.158271
 H         2.197120        -2.000014         1.605596
 H        -0.472168         0.318380         0.860223
 H        -0.559804         0.748511        -0.863859
 H        -0.523019        -1.045864        -0.275482
 H         3.992004         0.945557        -1.003237
 H         1.738169         2.846833         0.979164
