19
Iteration:  2604
 C         4.504697        -0.365328         1.821762
 C         3.364582        -0.226034         0.811121
 C         2.242290        -1.230211         0.705551
 C         1.428283        -0.090668         0.042029
 C        -0.144340        -0.013606        -0.024383
 O         2.190243         0.021518        -1.238816
 C         3.261796         0.690648        -0.478835
 C         2.407642         1.000701         0.674872
 O         2.352540         2.050318         1.619220
 H         4.805844        -1.412876         1.679133
 H         5.287116         0.235701         1.332135
 H         4.041772        -0.243656         2.790599
 H         2.435147        -2.167875         0.063371
 H         1.875079        -1.279073         1.756676
 H        -0.410400        -0.345505         0.992816
 H        -0.682509         0.874972        -0.300789
 H        -0.422241        -0.741733        -0.709414
 H         4.157515         1.186866        -1.002293
 H         2.311562         2.816845         1.175482
