19
Iteration:   885charge 0 multiplicity 1
 C         4.566190        -0.503745         1.801565
 C         3.342673        -0.334622         0.886532
 C         2.206841        -1.263704         0.678409
 C         1.441271        -0.067705         0.014623
 C        -0.041595        -0.011914        -0.049938
 O         2.137197         0.221575        -1.202868
 C         3.252175         0.670311        -0.481545
 C         2.404941         0.958670         0.811308
 O         2.334580         2.093908         1.513632
 H         5.226217        -1.291477         1.462471
 H         5.100197         0.511616         1.578666
 H         4.359330        -0.574899         2.873480
 H         2.450149        -2.050604        -0.043620
 H         1.764745        -1.612216         1.671549
 H        -0.371057        -0.192360         0.972668
 H        -0.512340         0.910479        -0.509401
 H        -0.444580        -0.905361        -0.638913
 H         4.118818         1.315729        -0.800989
 H         1.552969         2.737108         1.020301
