19
Iteration:  4128
 C         4.633174        -0.340216         1.820516
 C         3.396654        -0.295708         0.867905
 C         2.157829        -1.249358         0.691063
 C         1.413898        -0.046913        -0.005382
 C        -0.099569        -0.047875        -0.021109
 O         2.131508         0.071138        -1.264458
 C         3.291120         0.638480        -0.487601
 C         2.415186         0.916208         0.722561
 O         2.309159         2.134508         1.610091
 H         5.277199        -1.210202         1.727307
 H         5.344658         0.645820         1.585945
 H         4.241648        -0.390054         2.824987
 H         2.203600        -2.103746        -0.056791
 H         1.610522        -1.702510         1.558559
 H        -0.464244        -0.144927         1.048700
 H        -0.399849         0.968219        -0.337502
 H        -0.456643        -0.995646        -0.535004
 H         4.184740         1.151073        -0.913488
 H         1.770095         2.856250         0.999895
