19
Iteration:  4491
 C         4.568244        -0.385031         1.718469
 C         3.369416        -0.139197         0.888754
 C         2.264869        -1.219470         0.707654
 C         1.408650        -0.127420         0.110774
 C        -0.088794        -0.099514        -0.076570
 O         2.143518         0.114111        -1.313157
 C         3.242923         0.596942        -0.462136
 C         2.368359         0.965201         0.793887
 O         2.301242         2.056885         1.635051
 H         5.129414        -1.230395         1.428320
 H         5.317299         0.601464         1.591285
 H         4.313601        -0.178918         2.725094
 H         2.349027        -2.146606         0.080203
 H         1.806212        -1.591140         1.688856
 H        -0.596425        -0.194556         0.889397
 H        -0.341513         1.040864        -0.278941
 H        -0.483816        -0.582097        -1.014483
 H         4.164137         0.932216        -0.865955
 H         2.478055         2.772152         0.928899
