19
Iteration:  3896
 C         4.629003        -0.425687         1.616227
 C         3.387255        -0.171091         0.898210
 C         2.165950        -1.165985         0.851443
 C         1.361846        -0.083083         0.081014
 C        -0.124035        -0.039362        -0.168664
 O         2.164230         0.034012        -1.179768
 C         3.265275         0.649410        -0.487328
 C         2.502008         0.998565         0.774482
 O         2.267032         2.080483         1.627947
 H         5.259715        -1.164428         1.257251
 H         5.218462         0.539591         1.550383
 H         4.391538        -0.628818         2.604887
 H         2.188645        -2.147506         0.187995
 H         2.026166        -1.547507         1.861743
 H        -0.939945        -0.314630         0.533843
 H        -0.425496         0.889066        -0.681728
 H        -0.092630        -0.839167        -0.947256
 H         4.281867         0.806972        -0.963159
 H         1.802809         2.685540         1.139838
