19
Iteration:  3958
 C         4.620445        -0.367784         1.750434
 C         3.351519        -0.291677         0.862072
 C         2.184370        -1.256530         0.690876
 C         1.452039        -0.056697         0.041827
 C        -0.111036         0.008147         0.029876
 O         2.166798         0.093828        -1.275067
 C         3.317237         0.614253        -0.406693
 C         2.450381         0.975765         0.717723
 O         2.170559         2.061841         1.533388
 H         5.359701        -1.287446         1.632553
 H         5.145032         0.531512         1.554206
 H         4.385245        -0.304426         2.896777
 H         2.279479        -2.010449        -0.024200
 H         1.840802        -1.508312         1.709353
 H        -0.496555         0.001314         1.099969
 H        -0.494063         0.811746        -0.612504
 H        -0.478992        -0.918822        -0.380859
 H         4.187640         1.141300        -0.917254
 H         2.548111         2.805116         1.160801
