19
Iteration:    74
 C         4.527692        -0.315040         1.780733
 C         3.355858        -0.311632         0.890333
 C         2.192781        -1.214590         0.731039
 C         1.418662        -0.023968         0.076044
 C        -0.105526         0.023025         0.002355
 O         2.190008         0.091220        -1.244638
 C         3.228059         0.627133        -0.452528
 C         2.490382         0.902778         0.726317
 O         2.267914         2.029632         1.425420
 H         5.233252        -1.066707         1.466826
 H         5.077901         0.691611         1.686375
 H         4.293512        -0.468528         2.839874
 H         2.378249        -2.231701         0.132871
 H         1.679068        -1.526079         1.716968
 H        -0.449420        -0.160109         1.054700
 H        -0.534046         0.959159        -0.367007
 H        -0.521820        -0.799540        -0.609080
 H         4.040172         1.176970        -0.905956
 H         3.037144         2.497593         1.521662
