19
Iteration:  3914charge 0 multiplicity 1
 C         4.663037        -0.338641         1.649676
 C         3.375962        -0.271495         0.895224
 C         2.171782        -1.250971         0.738488
 C         1.398691        -0.044273         0.056304
 C         0.030918        -0.037732        -0.199070
 O         2.105676         0.039597        -1.180859
 C         3.218189         0.549564        -0.393401
 C         2.385380         0.983684         0.774479
 O         2.290193         2.151309         1.604828
 H         5.233275        -1.347816         1.314263
 H         5.281977         0.460981         1.436017
 H         4.577609        -0.586618         2.795297
 H         2.333367        -2.102391         0.178919
 H         1.565274        -1.300212         1.669509
 H        -0.440642        -0.255121         0.820883
 H        -0.290197         0.947677        -0.561249
 H        -0.490016        -0.798254        -0.711952
 H         4.015164         1.259702        -0.820096
 H         1.812014         2.845373         1.327068
