19
Iteration:  1095charge 0 multiplicity 1
 C         4.557405        -0.421723         1.803122
 C         3.373289        -0.285587         0.867540
 C         2.263502        -1.319901         0.651081
 C         1.386351        -0.073308         0.056696
 C        -0.087598         0.039377        -0.078484
 O         2.213191         0.158308        -1.218896
 C         3.153469         0.695832        -0.447257
 C         2.385802         0.907517         0.818543
 O         2.331275         2.065605         1.562982
 H         5.138907        -1.024407         1.178974
 H         5.272346         0.349122         1.812317
 H         4.495279        -0.817738         2.795192
 H         2.485068        -2.069818        -0.165413
 H         1.667451        -1.639153         1.523606
 H        -0.449388         0.018880         1.006221
 H        -0.430745         1.031005        -0.462539
 H        -0.688747        -0.723532        -0.605772
 H         4.006360         1.155590        -1.020869
 H         2.265627         2.890554         0.872976
