19
Iteration:  1508
 C         4.694393        -0.405795         1.649652
 C         3.323561        -0.219439         0.909066
 C         2.196900        -1.218989         0.779343
 C         1.405739        -0.100930        -0.010592
 C        -0.020214         0.174346        -0.197769
 O         2.186824        -0.025073        -1.262674
 C         3.181582         0.662954        -0.447778
 C         2.344972         0.946155         0.777408
 O         2.257878         1.967901         1.758421
 H         5.274423        -1.171329         1.154290
 H         5.281793         0.559746         1.493530
 H         4.597310        -0.480048         2.688980
 H         2.532205        -2.130855         0.275568
 H         1.784116        -1.304979         1.859701
 H        -0.613583         0.234566         0.797864
 H        -0.042277         1.160530        -0.725913
 H        -0.518073        -0.609549        -0.869257
 H         4.029923         1.220749        -0.942121
 H         1.891333         2.625155         1.319831
