19
Iteration:  3498
 C         4.573676        -0.351530         1.693977
 C         3.297450        -0.237925         0.957301
 C         2.193039        -1.276726         0.813054
 C         1.375296        -0.105553         0.089415
 C        -0.047562        -0.069495        -0.158351
 O         2.150539         0.091358        -1.246066
 C         3.193720         0.714617        -0.501049
 C         2.455453         0.974053         0.787495
 O         2.394415         2.061760         1.568563
 H         5.373150        -1.067167         1.287329
 H         5.055916         0.589302         1.734363
 H         4.409742        -0.764378         2.740849
 H         2.288329        -2.080918         0.150733
 H         1.871428        -1.606179         1.790856
 H        -0.679505        -0.164838         0.728222
 H        -0.436562         0.909213        -0.529220
 H        -0.325607        -0.789076        -0.887035
 H         4.074058         1.100372        -0.916846
 H         2.018001         2.913954         1.051843
