19
Iteration:  1693charge 0 multiplicity 1
 C         4.633962        -0.371196         1.650054
 C         3.383639        -0.213833         0.885652
 C         2.259794        -1.212486         0.723693
 C         1.440226        -0.135310         0.085658
 C        -0.056217         0.147873        -0.209891
 O         2.124504         0.089744        -1.139615
 C         3.210215         0.621472        -0.484919
 C         2.409504         0.924526         0.820188
 O         2.223459         1.915671         1.650611
 H         5.163684        -1.359935         1.480235
 H         5.366264         0.499866         1.386177
 H         4.421678        -0.159823         2.678031
 H         2.322509        -2.052240         0.113522
 H         2.062777        -1.344616         1.823961
 H        -0.626329         0.206483         0.727226
 H        -0.183601         1.095375        -0.683246
 H        -0.473870        -0.533746        -0.931424
 H         3.956506         1.120350        -1.097201
 H         1.905779         2.559383         1.180825
