19
Iteration:  4712
 C         4.675470        -0.209568         1.676691
 C         3.374784        -0.239450         0.785076
 C         2.132185        -1.234586         0.757754
 C         1.396162        -0.072659        -0.007231
 C        -0.041382        -0.005220        -0.160219
 O         2.123687         0.099411        -1.181135
 C         3.259453         0.532846        -0.439470
 C         2.391646         0.929340         0.722047
 O         2.260557         1.981628         1.751568
 H         5.339854        -1.012920         1.308364
 H         5.207583         0.739615         1.459855
 H         4.494795        -0.478252         2.677164
 H         2.167904        -2.255438         0.403520
 H         1.916370        -1.213526         1.877599
 H        -0.527078        -0.329410         0.817502
 H        -0.227458         0.978316        -0.514866
 H        -0.384259        -0.772830        -0.876899
 H         4.159470         0.961557        -1.009634
 H         2.298164         2.932640         1.210081
