19
Iteration:    17
 C         4.609660        -0.373712         1.839922
 C         3.341017        -0.162138         1.016525
 C         2.158058        -1.199054         0.682368
 C         1.410239         0.027612         0.163578
 C        -0.079024        -0.036679        -0.021912
 O         2.092013         0.015455        -1.233882
 C         3.242208         0.557864        -0.547303
 C         2.493690         1.020260         0.630959
 O         2.298712         2.106374         1.423947
 H         5.151494        -1.222493         1.305509
 H         5.347373         0.437199         2.050994
 H         4.295489        -0.806808         2.825175
 H         2.456330        -1.738643        -0.359154
 H         1.696015        -1.766623         1.552788
 H        -0.636475        -0.327340         0.886998
 H        -0.470638         0.920321        -0.401689
 H        -0.162680        -0.877671        -0.737569
 H         4.179868         0.834932        -1.064818
 H         2.634312         1.859206         2.214324
