19
Iteration:  4295
 C         4.584975        -0.387254         1.869900
 C         3.390419        -0.184917         0.853539
 C         2.190404        -1.179764         0.747439
 C         1.442516        -0.109548        -0.064179
 C        -0.042182        -0.068453        -0.033257
 O         2.078394         0.126726        -1.238163
 C         3.194578         0.606264        -0.553671
 C         2.450219         0.980156         0.782358
 O         2.316466         2.054194         1.578471
 H         5.094827        -1.303847         1.638339
 H         5.432485         0.351227         1.624696
 H         4.204263        -0.520929         2.892376
 H         2.283700        -2.108589         0.199681
 H         1.867357        -1.532205         1.760680
 H        -0.475594        -0.549597         0.858837
 H        -0.402402         0.953412        -0.312471
 H        -0.252378        -0.833572        -0.817692
 H         4.008298         1.180441        -1.115925
 H         2.246860         2.854890         1.089688
