19
Iteration:   776
 C         4.591102        -0.416396         1.632034
 C         3.294490        -0.291933         0.900711
 C         2.222251        -1.296657         0.696609
 C         1.457389        -0.055799         0.079685
 C        -0.000242         0.090859        -0.059417
 O         2.219152         0.114276        -1.208118
 C         3.261031         0.556784        -0.412907
 C         2.382316         0.945320         0.792634
 O         2.188247         2.072056         1.566732
 H         5.353795        -1.057679         1.156005
 H         5.010235         0.687782         1.832754
 H         4.536223        -0.729824         2.701776
 H         2.199510        -2.087869        -0.040904
 H         1.798151        -1.550459         1.667668
 H        -0.544349         0.141795         0.890389
 H        -0.197417         1.130100        -0.343452
 H        -0.439200        -0.692286        -0.719394
 H         4.096326         1.126080        -0.838314
 H         2.025999         2.918902         0.896775
