19
Iteration:   795charge 0 multiplicity 1
 C         4.711915        -0.363884         1.629816
 C         3.419543        -0.265518         0.890314
 C         2.136447        -1.216005         0.827447
 C         1.379796        -0.113103        -0.010787
 C        -0.088109         0.117065        -0.211528
 O         2.137311         0.116130        -1.208362
 C         3.256319         0.619725        -0.428140
 C         2.459824         0.905913         0.803045
 O         2.176873         1.971881         1.630097
 H         5.273996        -1.135653         1.169898
 H         5.271494         0.630261         1.682294
 H         4.537548        -0.662605         2.649002
 H         2.402713        -2.218760         0.551233
 H         1.598707        -1.216197         1.857176
 H        -0.643853         0.049023         0.792232
 H        -0.311543         1.101767        -0.606559
 H        -0.388590        -0.738394        -0.869638
 H         4.221778         0.936990        -0.754813
 H         2.553522         2.889385         1.269858
