19
Iteration:  4709charge 0 multiplicity 1
 C         4.686941        -0.226671         1.656324
 C         3.381039        -0.264178         0.788794
 C         2.142707        -1.227312         0.760639
 C         1.377949        -0.062742         0.015402
 C        -0.031728        -0.017309        -0.160188
 O         2.128421         0.108564        -1.168087
 C         3.266537         0.517679        -0.463023
 C         2.373968         0.959604         0.750259
 O         2.261502         1.983522         1.725504
 H         5.337416        -1.058904         1.485123
 H         5.200863         0.822069         1.554163
 H         4.506005        -0.477850         2.698785
 H         2.273646        -2.322780         0.386688
 H         1.819131        -1.153194         1.779883
 H        -0.533060        -0.282431         0.733217
 H        -0.297641         1.002398        -0.472549
 H        -0.377851        -0.704981        -0.917010
 H         4.103736         1.088387        -1.075327
 H         2.214610         2.719454         1.224753
