19
Iteration:  1916charge 0 multiplicity 1
 C         4.563577        -0.494698         1.737065
 C         3.339419        -0.168438         0.874196
 C         2.268339        -1.250260         0.683032
 C         1.446376        -0.131581         0.047134
 C        -0.036111         0.016368         0.005322
 O         2.156125         0.084629        -1.224917
 C         3.259865         0.644395        -0.441000
 C         2.394067         1.017876         0.693154
 O         2.239622         2.099665         1.554170
 H         5.097685        -1.343026         1.308441
 H         5.181534         0.361109         1.884277
 H         4.184430        -0.845259         2.790429
 H         2.532624        -2.069272        -0.025277
 H         1.837008        -1.662116         1.575418
 H        -0.304277         0.065255         1.071787
 H        -0.144757         1.067264        -0.335370
 H        -0.535313        -0.842932        -0.414587
 H         4.059794         1.323417        -0.839168
 H         1.791426         2.655156         1.016189
