19
Iteration:  2384charge 0 multiplicity 1
 C         4.604305        -0.390573         1.736513
 C         3.379012        -0.203424         0.839032
 C         2.198380        -1.186452         0.804102
 C         1.463806        -0.044816         0.043833
 C        -0.020302        -0.011123        -0.107984
 O         2.058880         0.159261        -1.204062
 C         3.257837         0.555347        -0.451830
 C         2.453264         0.934586         0.773964
 O         2.257487         1.990599         1.541406
 H         4.971437        -1.336866         1.383678
 H         5.236244         0.564860         1.728565
 H         4.222380        -0.523496         2.728640
 H         2.446740        -2.165849         0.296457
 H         1.848671        -1.336238         1.835310
 H        -0.722324        -0.053990         0.795521
 H        -0.166726         0.947185        -0.655670
 H        -0.308790        -0.825156        -0.764226
 H         4.134609         0.992892        -1.046522
 H         2.097193         2.755922         1.140496
