19
Iteration:  3802
 C         4.634417        -0.354514         1.765348
 C         3.361148        -0.346006         0.904237
 C         2.225864        -1.317821         0.699505
 C         1.447169        -0.122097         0.041146
 C        -0.081411         0.062919        -0.062210
 O         2.145390         0.141532        -1.240469
 C         3.143712         0.645998        -0.498156
 C         2.475299         0.919192         0.845728
 O         2.266054         2.118321         1.539664
 H         5.457840        -1.089229         1.659191
 H         5.131254         0.600446         1.497000
 H         4.316257        -0.457449         2.849592
 H         2.434499        -2.171059         0.110312
 H         1.774057        -1.675488         1.614721
 H        -0.515394         0.095950         0.907488
 H        -0.459123         0.964094        -0.550832
 H        -0.450512        -0.939381        -0.470866
 H         3.910758         1.176731        -1.074469
 H         2.200916         2.745275         0.814901
