19
Iteration:  4752
 C         4.636028        -0.279670         1.644945
 C         3.337897        -0.217668         0.902490
 C         2.189738        -1.249967         0.711002
 C         1.416694        -0.105322         0.002083
 C        -0.067366         0.003460        -0.103091
 O         2.169718         0.057373        -1.218957
 C         3.266834         0.648974        -0.389827
 C         2.337043         0.963740         0.775488
 O         2.310948         1.977090         1.647409
 H         5.202214        -1.082448         1.167676
 H         5.167467         0.721575         1.602961
 H         4.688752        -0.541716         2.722656
 H         2.230046        -2.121730        -0.020914
 H         1.796105        -1.483902         1.665020
 H        -0.469435         0.259993         0.852210
 H        -0.486112         0.740999        -0.792978
 H        -0.508338        -0.947530        -0.411698
 H         4.153830         1.188999        -0.891319
 H         1.991689         2.805981         1.228990
