19
Iteration:   933
 C         4.613611        -0.465939         1.733399
 C         3.382776        -0.289749         0.898844
 C         2.178482        -1.214422         0.718281
 C         1.434741         0.000597         0.010273
 C        -0.067867         0.027608         0.020590
 O         2.209872         0.065914        -1.304488
 C         3.285519         0.661113        -0.428565
 C         2.426041         1.024328         0.712581
 O         2.172663         2.021872         1.576666
 H         5.344401        -1.186473         1.144725
 H         5.099312         0.324428         2.263462
 H         4.107893        -1.168059         2.526574
 H         2.347638        -2.089295         0.082515
 H         1.751661        -1.420026         1.638137
 H        -0.420419         0.002811         1.080378
 H        -0.389495         0.992890        -0.365031
 H        -0.532170        -0.766804        -0.524929
 H         3.990380         1.287244        -0.946581
 H         2.398936         2.955528         1.246462
