19
Iteration:  1183charge 0 multiplicity 1
 C         4.634010        -0.464255         1.586781
 C         3.360463        -0.229313         0.882710
 C         2.168180        -1.232902         0.742244
 C         1.433064        -0.102348         0.094002
 C        -0.107469         0.042758        -0.209054
 O         2.174808         0.063028        -1.222811
 C         3.263092         0.686736        -0.393096
 C         2.485759         0.994390         0.801663
 O         2.258356         2.066178         1.677222
 H         5.236999        -1.175504         1.066703
 H         5.145800         0.541731         1.731450
 H         4.282457        -0.809738         2.572636
 H         2.301881        -2.220362         0.183107
 H         1.724810        -1.458839         1.716899
 H        -0.672355         0.063378         0.804623
 H        -0.125939         1.055049        -0.618028
 H        -0.580809        -0.657870        -0.923378
 H         4.242249         0.975100        -0.761886
 H         1.532481         2.539389         1.389344
