19
Iteration:   200
 C         4.583861        -0.463042         1.826222
 C         3.390634        -0.297693         0.889735
 C         2.209122        -1.267563         0.697783
 C         1.413022        -0.097840        -0.017586
 C        -0.108168        -0.032227         0.003704
 O         2.182216         0.133125        -1.289220
 C         3.213376         0.667190        -0.400447
 C         2.382161         0.933006         0.836010
 O         2.326214         2.222859         1.337551
 H         5.295762        -1.207645         1.413968
 H         5.043142         0.439683         2.001120
 H         4.208311        -0.825043         2.780892
 H         2.289802        -2.211466         0.131358
 H         1.769871        -1.499807         1.678591
 H        -0.528881        -0.187106         1.000593
 H        -0.448107         0.969188        -0.272857
 H        -0.537000        -0.745346        -0.710618
 H         4.127709         1.250002        -0.633864
 H         2.496469         2.287731         2.283758
