19
Iteration:  3402charge 0 multiplicity 1
 C         4.628712        -0.482016         1.662047
 C         3.446500        -0.141172         0.905598
 C         2.202676        -1.175862         0.820612
 C         1.393816        -0.002943         0.133467
 C        -0.104368         0.016653        -0.068910
 O         2.200838         0.051937        -1.250541
 C         3.318557         0.644398        -0.492257
 C         2.472393         0.996921         0.693129
 O         2.134308         1.974629         1.585471
 H         5.216971        -1.425539         1.481512
 H         5.373290         0.266914         1.586283
 H         4.309742        -0.627384         2.638416
 H         2.221029        -2.181265         0.314166
 H         2.026730        -1.344072         1.909825
 H        -0.828230         0.169154         0.820459
 H        -0.324617         1.007289        -0.660065
 H        -0.504202        -0.796437        -0.771367
 H         4.150654         1.041442        -1.018295
 H         1.557983         2.454039         0.988307
