19
Iteration:   894
 C         4.524637        -0.491866         1.757884
 C         3.371621        -0.255676         0.860747
 C         2.218631        -1.303515         0.666914
 C         1.446959        -0.089185         0.061700
 C        -0.035366        -0.017113        -0.014646
 O         2.122032         0.224451        -1.265750
 C         3.252594         0.601799        -0.398083
 C         2.511017         0.997297         0.732301
 O         2.276909         2.119387         1.547759
 H         5.126386        -1.300616         1.508731
 H         5.145481         0.423228         1.977843
 H         4.067748        -0.735907         2.679596
 H         2.368995        -2.127713        -0.058052
 H         1.776772        -1.804302         1.635129
 H        -0.455232        -0.122160         1.024645
 H        -0.453014         0.934580        -0.388500
 H        -0.378892        -0.910218        -0.612969
 H         4.100090         1.269443        -0.718797
 H         1.700983         2.837723         0.925156
