19
Iteration:  2046charge 0 multiplicity 1
 C         4.630471        -0.260170         1.699852
 C         3.360722        -0.321251         0.863472
 C         2.105065        -1.170662         0.817450
 C         1.405059        -0.037470         0.016787
 C        -0.091433        -0.029068        -0.064398
 O         2.155913         0.188335        -1.276986
 C         3.302032         0.533129        -0.446688
 C         2.497727         0.901309         0.746161
 O         2.278766         1.967089         1.627126
 H         5.179996        -1.132495         1.632746
 H         5.351414         0.441589         1.324856
 H         4.294621        -0.093129         2.751621
 H         2.000118        -2.193723         0.254030
 H         1.418255        -1.206961         1.691480
 H        -0.420842        -0.335639         0.878247
 H        -0.524340         0.910213        -0.414397
 H        -0.275706        -0.633070        -0.863881
 H         4.236171         0.874290        -1.081959
 H         2.131002         2.749456         1.125886
