19
Iteration:  2192charge 0 multiplicity 1
 C         4.674363        -0.353570         1.684160
 C         3.341836        -0.226123         0.898094
 C         2.243857        -1.262590         0.789511
 C         1.456175        -0.113804         0.081051
 C        -0.081106         0.063712        -0.262740
 O         2.079004         0.048278        -1.214644
 C         3.172713         0.567000        -0.448303
 C         2.349215         0.921944         0.768682
 O         2.367921         2.134762         1.674054
 H         5.180348        -1.323624         1.341375
 H         5.160948         0.591573         1.619459
 H         4.427351        -0.611665         2.793264
 H         2.329663        -2.158245        -0.000013
 H         1.872038        -1.426902         1.881664
 H        -0.599019        -0.011214         0.709111
 H        -0.275250         0.969130        -0.765901
 H        -0.437527        -0.772072        -0.834256
 H         4.035046         1.100911        -0.916911
 H         2.129366         2.813620         1.192273
