19
Iteration:  4254charge 0 multiplicity 1
 C         4.650822        -0.365582         1.641147
 C         3.344256        -0.236011         0.912591
 C         2.117965        -1.240909         0.716417
 C         1.408697        -0.034639         0.088458
 C        -0.040372        -0.057975        -0.159064
 O         2.184206         0.043416        -1.159793
 C         3.278735         0.624455        -0.358022
 C         2.373947         0.911850         0.819527
 O         2.304464         2.157235         1.544197
 H         5.185292        -1.222212         1.069782
 H         5.277503         0.452411         1.394884
 H         4.654708        -0.505697         2.796870
 H         2.128823        -2.124852         0.042916
 H         1.664089        -1.542614         1.701773
 H        -0.395654        -0.293381         0.807099
 H        -0.452612         0.914292        -0.403768
 H        -0.368141        -0.765541        -0.889692
 H         4.047901         1.231154        -0.952760
 H         1.692531         2.693371         0.848997
