19
Iteration:   723
 C         4.518738        -0.522799         1.789264
 C         3.393194        -0.266657         0.844285
 C         2.199762        -1.256700         0.789076
 C         1.472229        -0.034588        -0.007410
 C        -0.007283        -0.032092         0.063043
 O         2.108212         0.207969        -1.299495
 C         3.318203         0.731506        -0.449196
 C         2.474115         0.958924         0.743188
 O         2.222376         2.064191         1.488403
 H         5.164836        -1.369249         1.472020
 H         5.132339         0.397077         2.038338
 H         3.978052        -0.911927         2.680681
 H         2.250075        -2.265999         0.168335
 H         1.779659        -1.417876         1.770969
 H        -0.387371        -0.174836         1.063804
 H        -0.412310         0.899670        -0.419793
 H        -0.337900        -0.865387        -0.590950
 H         4.248910         1.068864        -0.928900
 H         1.728229         2.622646         0.939771
