19
Iteration:  2628
 C         4.608003        -0.203369         1.773009
 C         3.324417        -0.325229         0.896386
 C         2.101964        -1.202116         0.730822
 C         1.407260        -0.099641         0.011769
 C        -0.049048        -0.077065        -0.086215
 O         2.095618         0.164636        -1.271788
 C         3.260713         0.548320        -0.432309
 C         2.473130         0.913893         0.736861
 O         2.342610         2.025905         1.606070
 H         4.987208        -1.266388         1.748010
 H         5.309061         0.401718         1.232585
 H         4.148361        -0.010328         2.784986
 H         2.298965        -2.093355         0.053888
 H         1.741033        -1.253877         1.793280
 H        -0.446120        -0.351585         0.883649
 H        -0.368640         0.932170        -0.408895
 H        -0.322434        -0.688758        -0.918494
 H         4.151966         1.022832        -0.846771
 H         2.826420         2.857851         1.255679
