19
Iteration:  2673charge 0 multiplicity 1
 C         4.654895        -0.367143         1.623145
 C         3.341785        -0.194914         0.930918
 C         2.159722        -1.264792         0.760832
 C         1.367443        -0.128884         0.049039
 C        -0.046076         0.032450        -0.202540
 O         2.166309         0.005620        -1.176274
 C         3.242293         0.593765        -0.384999
 C         2.358399         0.949426         0.784417
 O         2.334273         2.100281         1.627703
 H         5.413646        -1.055407         1.130107
 H         5.186495         0.572199         1.427357
 H         4.539453        -0.427887         2.788910
 H         2.339983        -2.118364         0.070430
 H         1.654482        -1.197025         1.737364
 H        -0.614163        -0.029404         0.702338
 H        -0.085628         1.041900        -0.646819
 H        -0.376409        -0.662641        -0.984618
 H         4.021395         1.087686        -0.851732
 H         1.828479         2.906830         1.173351
