19
Iteration:  1865charge 0 multiplicity 1
 C         4.617105        -0.245958         1.673940
 C         3.332297        -0.255306         0.870839
 C         2.160314        -1.242709         0.769447
 C         1.432026        -0.028850        -0.011027
 C        -0.064925         0.049821        -0.116779
 O         2.158984         0.113799        -1.220262
 C         3.263043         0.564034        -0.453464
 C         2.391809         0.930126         0.752069
 O         2.315394         1.945216         1.724301
 H         5.125010        -1.265123         1.518253
 H         5.307978         0.403906         1.156112
 H         4.548779        -0.030016         2.732948
 H         2.170144        -2.211730         0.264053
 H         1.571291        -1.416681         1.700263
 H        -0.574392        -0.347461         0.827241
 H        -0.328218         0.976349        -0.649633
 H        -0.279386        -0.711528        -0.941609
 H         4.152015         0.856932        -1.101675
 H         1.996459         2.805160         1.108726
