19
Iteration:  2914
 C         4.579015        -0.403946         1.660260
 C         3.327038        -0.207408         0.950590
 C         2.255817        -1.311812         0.635639
 C         1.420632        -0.090028         0.117455
 C        -0.128208         0.025558        -0.003216
 O         2.212512         0.119680        -1.219678
 C         3.272175         0.606863        -0.336386
 C         2.377909         0.910105         0.796862
 O         2.253446         2.131158         1.436096
 H         5.258322        -1.093250         1.141065
 H         5.104383         0.560942         1.911783
 H         4.590579        -0.956604         2.670737
 H         2.620121        -2.154739         0.015279
 H         1.832628        -1.615973         1.602694
 H        -0.627852         0.185444         0.889449
 H        -0.393671         0.875603        -0.555467
 H        -0.474690        -0.839811        -0.549944
 H         4.187792         1.223139        -0.691500
 H         2.050914         2.711802         0.740143
