19
Iteration:  3366charge 0 multiplicity 1
 C         4.655239        -0.348655         1.572038
 C         3.275128        -0.285786         0.908948
 C         2.139560        -1.304886         0.814063
 C         1.446352        -0.143378         0.042363
 C        -0.035642         0.031503        -0.122448
 O         2.217573         0.076942        -1.291601
 C         3.282633         0.606767        -0.388419
 C         2.445306         0.953796         0.853747
 O         2.212530         2.153631         1.615502
 H         5.197254        -1.133116         1.061895
 H         5.096421         0.549857         1.366532
 H         4.715290        -0.370668         2.666265
 H         2.219645        -2.166634         0.222376
 H         1.501596        -1.495850         1.648274
 H        -0.375519         0.386036         0.900033
 H        -0.055142         0.908119        -0.892469
 H        -0.674780        -0.815209        -0.430797
 H         4.351269         0.961306        -0.704107
 H         1.499989         2.632357         1.309272
