19
Iteration:   925charge 0 multiplicity 1
 C         4.561161        -0.564073         1.753838
 C         3.392901        -0.189120         0.866604
 C         2.218382        -1.168031         0.679701
 C         1.422209        -0.014457        -0.018878
 C        -0.065292         0.051637        -0.000168
 O         2.192761         0.067479        -1.237963
 C         3.256832         0.619579        -0.431926
 C         2.472830         0.977078         0.687438
 O         2.168229         2.050618         1.585358
 H         5.433985        -1.050676         1.348971
 H         4.976613         0.379119         2.135810
 H         4.261873        -1.038818         2.683541
 H         2.406479        -1.995281        -0.015375
 H         1.815224        -1.544878         1.684563
 H        -0.125861        -0.148537         1.105729
 H        -0.632549         0.911963        -0.272278
 H        -0.537855        -0.826788        -0.444917
 H         3.984901         1.289582        -0.937727
 H         2.389138         2.843902         1.198145
