19
Iteration:   180charge 0 multiplicity 1
 C         4.564728        -0.493118         1.661963
 C         3.356706        -0.233805         0.920036
 C         2.142861        -1.218630         0.673756
 C         1.437069         0.017193         0.145546
 C        -0.035579         0.008696        -0.063828
 O         2.234509         0.037427        -1.100824
 C         3.320226         0.556985        -0.440886
 C         2.425986         1.044299         0.756465
 O         2.216044         2.169223         1.399330
 H         5.240255        -1.246742         1.163204
 H         5.128008         0.447352         1.694715
 H         4.326110        -0.851154         2.686250
 H         2.257854        -1.847549        -0.104806
 H         1.858425        -1.542591         1.651023
 H        -0.629425        -0.130488         0.869230
 H        -0.427661         0.908463        -0.519061
 H        -0.246821        -0.888976        -0.662579
 H         4.057487         1.004863        -1.118937
 H         1.546432         1.930100         2.215929
