19
Iteration:  2962charge 0 multiplicity 1
 C         4.531987        -0.479702         1.737763
 C         3.419837        -0.226118         0.849094
 C         2.218185        -1.119662         0.871454
 C         1.445014        -0.009161         0.048973
 C        -0.036846        -0.045104         0.041677
 O         2.195381         0.124327        -1.309239
 C         3.289912         0.624923        -0.503519
 C         2.504354         0.984062         0.677129
 O         2.090312         1.987666         1.543741
 H         5.230819        -1.247553         1.215425
 H         5.079587         0.379390         2.050283
 H         4.482040        -1.066180         2.644103
 H         2.221881        -2.093560         0.271558
 H         1.737330        -1.296154         1.907398
 H        -0.469589         0.281190         1.009658
 H        -0.456047         0.756281        -0.600799
 H        -0.285897        -0.980089        -0.386673
 H         4.069282         1.031663        -1.087903
 H         2.206265         2.953385         1.039473
