19
Iteration:  1507
 C         4.690452        -0.395095         1.646868
 C         3.330270        -0.218962         0.909896
 C         2.198297        -1.222138         0.769292
 C         1.406377        -0.109727        -0.005659
 C        -0.022667         0.173421        -0.201910
 O         2.182442        -0.024731        -1.265022
 C         3.175312         0.652385        -0.439904
 C         2.350216         0.946296         0.779543
 O         2.260174         1.971241         1.758846
 H         5.243986        -1.233013         1.130060
 H         5.280299         0.560214         1.489938
 H         4.577378        -0.463126         2.690304
 H         2.551414        -2.117274         0.295273
 H         1.785463        -1.290184         1.848949
 H        -0.614168         0.270287         0.792843
 H        -0.007315         1.165344        -0.719556
 H        -0.494881        -0.610209        -0.886010
 H         4.028449         1.235251        -0.908495
 H         1.883878         2.672679         1.364034
