19
Iteration:  1007
 C         4.623562        -0.364771         1.560508
 C         3.328365        -0.223678         0.898738
 C         2.181745        -1.267932         0.813214
 C         1.421569        -0.068633         0.010077
 C        -0.070147         0.080150        -0.241379
 O         2.149243         0.025857        -1.177227
 C         3.260220         0.638817        -0.421166
 C         2.385103         0.980806         0.809403
 O         2.322759         2.019251         1.743689
 H         4.980713        -1.344725         1.274696
 H         5.249395         0.441215         1.251489
 H         4.504761        -0.319117         2.645040
 H         2.412349        -2.212640         0.168772
 H         1.613515        -1.509566         1.727900
 H        -0.741825         0.034175         0.632590
 H        -0.179205         1.070349        -0.778452
 H        -0.273091        -0.779247        -0.929003
 H         4.135674         1.091561        -0.868601
 H         2.039991         2.765628         1.162290
