19
Iteration:   288
 C         4.662776        -0.360279         1.613015
 C         3.283789        -0.250715         1.023765
 C         2.144351        -1.160695         0.952009
 C         1.464080        -0.070612         0.018960
 C         0.016929         0.028027        -0.219417
 O         2.133733         0.147626        -1.303537
 C         3.139765         0.525261        -0.449345
 C         2.422286         0.937144         0.765478
 O         2.314189         2.059363         1.512068
 H         5.223041        -1.240432         1.244781
 H         5.235659         0.483603         1.449328
 H         4.689314        -0.392380         2.697566
 H         2.406193        -2.201959         0.436732
 H         1.515743        -1.413580         1.839085
 H        -0.520587         0.040426         0.760520
 H        -0.183584         0.989330        -0.668081
 H        -0.398961        -0.778881        -0.825186
 H         4.029502         1.026939        -0.785539
 H         2.085806         1.663889         2.541298
