19
Iteration:  3763
 C         4.589778        -0.440385         1.752892
 C         3.384832        -0.141386         0.890555
 C         2.220222        -1.079941         0.761009
 C         1.405530        -0.007659        -0.003153
 C        -0.078950        -0.009005        -0.005870
 O         2.164683         0.033846        -1.277079
 C         3.292203         0.554632        -0.534779
 C         2.432334         0.966363         0.667000
 O         2.228795         1.976363         1.657171
 H         5.014713        -1.381299         1.343847
 H         5.312596         0.422371         1.701021
 H         4.365091        -0.441469         2.817294
 H         2.502764        -2.005014         0.162217
 H         1.733166        -1.346827         1.759765
 H        -0.283579        -0.009901         1.147802
 H        -0.654143         0.815702        -0.486088
 H        -0.334191        -0.939731        -0.463153
 H         4.072319         0.956955        -1.089350
 H         1.883350         2.912172         1.180826
