19
Iteration:  4063
 C         4.726631        -0.347768         1.577026
 C         3.311221        -0.205792         0.919968
 C         2.147196        -1.148898         0.834462
 C         1.383425        -0.046760         0.054829
 C        -0.136079        -0.044777        -0.220758
 O         2.176147         0.022654        -1.182431
 C         3.300831         0.583628        -0.365631
 C         2.408301         0.922119         0.812605
 O         2.296172         2.083352         1.617821
 H         5.271323        -1.136109         1.140970
 H         5.445411         0.533286         1.440737
 H         4.650649        -0.563586         2.617750
 H         2.296897        -2.126926         0.267747
 H         1.691153        -1.465346         1.820475
 H        -0.894457        -0.194162         0.579003
 H        -0.482999         0.954005        -0.561873
 H        -0.462940        -0.757123        -1.033777
 H         4.157028         1.072466        -0.917858
 H         1.932817         2.705280         0.832192
