19
Iteration:  4674
 C         4.658141        -0.391448         1.699774
 C         3.289174        -0.184808         0.927699
 C         2.251843        -1.264711         0.692816
 C         1.423394        -0.103917         0.071189
 C        -0.056732        -0.029645        -0.108084
 O         2.151322         0.093471        -1.181706
 C         3.220754         0.665948        -0.483572
 C         2.382620         0.960740         0.759244
 O         2.293274         2.084238         1.587993
 H         5.175183        -1.253113         1.183657
 H         5.499078         0.361436         1.624392
 H         4.416293        -0.461364         2.813374
 H         2.547843        -2.284167         0.237078
 H         1.767600        -1.536926         1.641654
 H        -0.519834        -0.436242         0.773517
 H        -0.388123         1.050417        -0.164872
 H        -0.369855        -0.550317        -1.012383
 H         4.045565         1.026601        -1.055214
 H         1.541511         2.677407         1.242853
