19
Iteration:   336charge 0 multiplicity 1
 C         4.662656        -0.587503         1.599578
 C         3.368022        -0.280345         0.916184
 C         2.226408        -1.184967         0.746462
 C         1.447958        -0.050238         0.088181
 C        -0.037577         0.172161        -0.030557
 O         2.232257        -0.034657        -1.235914
 C         3.374145         0.625924        -0.345440
 C         2.366786         0.973157         0.769885
 O         1.946563         2.184221         1.423273
 H         5.166949        -1.409198         1.122426
 H         5.352459         0.339600         1.680640
 H         4.601325        -0.802325         2.673624
 H         2.317277        -2.053359         0.146735
 H         1.900515        -1.517874         1.771402
 H        -0.608476         0.186162         0.905852
 H        -0.309850         1.102742        -0.593122
 H        -0.371477        -0.764914        -0.525947
 H         4.248387         1.250947        -0.660681
 H         2.786540         2.517682         2.031080
