19
Iteration:  4195
 C         4.697689        -0.443237         1.651173
 C         3.453209        -0.299006         0.860713
 C         2.147617        -1.200062         0.854785
 C         1.448009        -0.065014         0.108907
 C        -0.038024         0.058652        -0.149535
 O         2.180758        -0.015012        -1.241588
 C         3.215714         0.701870        -0.484306
 C         2.422439         1.017676         0.773794
 O         2.104081         2.047567         1.599288
 H         5.463814        -1.085592         1.206544
 H         5.050084         0.751622         1.661939
 H         4.594876        -0.826812         2.684753
 H         2.238360        -2.128264         0.247737
 H         1.590277        -1.345840         1.832859
 H        -0.554210         0.209506         0.871920
 H        -0.230365         0.949170        -0.784576
 H        -0.407860        -0.931606        -0.549942
 H         4.060841         1.051963        -0.992376
 H         2.330714         2.838980         1.203599
