19
Iteration:  2858
 C         4.582465        -0.354280         1.603479
 C         3.307754        -0.157235         0.872465
 C         2.172890        -1.135466         0.838292
 C         1.353921        -0.012383         0.067157
 C        -0.063285        -0.036108        -0.233059
 O         2.189681         0.007261        -1.167271
 C         3.255644         0.574916        -0.443516
 C         2.427138         1.022679         0.686184
 O         2.322739         1.940549         1.704291
 H         5.177833        -1.166930         1.330423
 H         5.378765         0.400412         1.279106
 H         4.452734        -0.205874         2.710128
 H         2.276937        -2.170218         0.419924
 H         1.880528        -1.112466         1.880935
 H        -0.433523        -0.521085         0.637640
 H        -0.473900         0.951698        -0.340427
 H        -0.403755        -0.633120        -1.049972
 H         4.148013         0.978285        -1.037157
 H         2.215888         2.743712         1.380941
