19
Iteration:  3954
 C         4.610739        -0.363486         1.749186
 C         3.350502        -0.312388         0.887095
 C         2.192268        -1.257266         0.696161
 C         1.436109        -0.082906         0.077705
 C        -0.159360         0.008102         0.018648
 O         2.190487         0.108034        -1.278823
 C         3.310132         0.641966        -0.417183
 C         2.483813         0.969650         0.700049
 O         2.178848         2.055157         1.533596
 H         5.226170        -1.215903         1.535085
 H         5.203008         0.585174         1.518691
 H         4.436583        -0.262006         2.825502
 H         2.260694        -2.141746        -0.027517
 H         1.850386        -1.584876         1.715562
 H        -0.410616         0.058777         1.062470
 H        -0.544697         0.833796        -0.591824
 H        -0.508193        -0.950973        -0.467851
 H         4.194752         1.105433        -0.791750
 H         2.546317         2.974274         1.092379
