19
Iteration:  4481
 C         4.588209        -0.340892         1.712655
 C         3.346293        -0.223637         0.923691
 C         2.273383        -1.232915         0.717657
 C         1.399671        -0.098630         0.077466
 C        -0.077862        -0.057185        -0.071970
 O         2.113120         0.147011        -1.260394
 C         3.233026         0.591259        -0.421268
 C         2.419377         0.923759         0.753367
 O         2.290529         2.098117         1.571303
 H         4.985758        -1.323651         1.515502
 H         5.454952         0.412421         1.560309
 H         4.289171        -0.487586         2.732001
 H         2.484254        -1.967007        -0.066485
 H         1.996120        -1.727416         1.672617
 H        -0.602994        -0.505904         0.779583
 H        -0.434706         1.001837        -0.316264
 H        -0.398889        -0.773284        -0.895729
 H         4.097218         1.118273        -0.789374
 H         2.340570         2.853089         1.026582
