19
Iteration:  4045
 C         4.669000        -0.358408         1.566045
 C         3.302400        -0.261397         0.991694
 C         2.159308        -1.300398         0.795843
 C         1.399338        -0.085386         0.125067
 C        -0.018555        -0.002325        -0.189194
 O         2.191979         0.117095        -1.128373
 C         3.232010         0.546241        -0.387187
 C         2.440326         1.005884         0.687305
 O         2.261268         2.134529         1.551893
 H         5.248300        -1.091792         0.864896
 H         5.123881         0.564791         1.496405
 H         4.755133        -0.591763         2.701590
 H         2.234781        -2.201663         0.224056
 H         1.595319        -1.715819         1.730451
 H        -0.600105        -0.132332         0.767660
 H        -0.465834         0.878749        -0.670226
 H        -0.237911        -0.781703        -0.888858
 H         4.165178         0.806109        -0.848976
 H         1.584824         2.972188         1.269997
