19
Iteration:  3059charge 0 multiplicity 1
 C         4.608550        -0.340236         1.706214
 C         3.381250        -0.261380         0.801166
 C         2.084958        -1.146205         0.858915
 C         1.374352        -0.045900         0.064615
 C        -0.037905        -0.097878        -0.120971
 O         2.157486         0.038123        -1.266552
 C         3.234431         0.670622        -0.534836
 C         2.490759         1.001225         0.733439
 O         2.287699         2.014219         1.669701
 H         5.253808        -1.312867         1.453304
 H         5.259559         0.489989         1.612550
 H         4.560433        -0.343972         2.870652
 H         2.036537        -2.201096         0.508479
 H         1.543840        -1.151213         1.863257
 H        -0.586664        -0.590364         0.685250
 H        -0.426355         0.869096        -0.288296
 H        -0.104149        -0.611656        -1.039532
 H         4.202596         1.077925        -1.004965
 H         2.357128         2.831550         1.275205
