19
Iteration:  4361charge 0 multiplicity 1
 C         4.690094        -0.257649         1.678633
 C         3.338409        -0.310928         1.013107
 C         2.146067        -1.279973         0.786584
 C         1.406969        -0.062042         0.057348
 C        -0.037446         0.080179        -0.136905
 O         2.132335         0.099819        -1.305893
 C         3.220215         0.618762        -0.451482
 C         2.422555         0.908613         0.751737
 O         2.288809         2.000058         1.612303
 H         5.358789        -0.979961         1.285963
 H         5.130065         0.765302         1.547844
 H         4.662798        -0.585794         2.704716
 H         2.390645        -2.146283         0.208558
 H         1.772515        -1.547385         1.802531
 H        -0.660238         0.111747         0.742272
 H        -0.311058         0.896508        -0.861812
 H        -0.310524        -0.947597        -0.384924
 H         4.013773         1.147855        -0.989099
 H         1.830206         2.580926         1.145650
