19
Iteration:  3628
 C         4.634594        -0.464228         1.771314
 C         3.413177        -0.220570         0.855098
 C         2.222674        -1.202716         0.780851
 C         1.418188        -0.038649         0.044178
 C        -0.022420         0.009441         0.002696
 O         2.099697         0.113746        -1.285827
 C         3.267463         0.576612        -0.534724
 C         2.435304         0.968246         0.714912
 O         2.117485         2.098521         1.569956
 H         5.309418        -1.263568         1.375062
 H         5.269000         0.365897         1.856421
 H         4.350197        -0.737620         2.850329
 H         2.281582        -2.185390         0.229781
 H         1.924770        -1.352069         1.896488
 H        -0.312953        -0.373011         0.970921
 H        -0.480131         0.913808        -0.372503
 H        -0.355485        -0.847444        -0.574936
 H         4.110125         1.014413        -1.139269
 H         2.847887         2.796425         1.234039
