19
Iteration:  4770
 C         4.641447        -0.376071         1.650055
 C         3.416561        -0.313322         0.849176
 C         2.224049        -1.253338         0.702875
 C         1.409366        -0.120892         0.046862
 C        -0.096717        -0.061094        -0.075117
 O         2.154455         0.181600        -1.222860
 C         3.215113         0.618970        -0.455917
 C         2.469651         0.949995         0.838270
 O         2.231964         2.132402         1.624829
 H         5.398326        -1.162844         1.291746
 H         5.084165         0.554924         1.854190
 H         4.241250        -0.499824         2.708971
 H         2.483143        -2.158567         0.185115
 H         1.828558        -1.547647         1.719946
 H        -0.500372         0.479126         0.812462
 H        -0.300374         0.710312        -0.912914
 H        -0.560593        -1.014177        -0.456648
 H         4.120673         0.968273        -0.880742
 H         1.529889         2.578186         1.064591
