19
Iteration:  1018charge 0 multiplicity 1
 C         4.616858        -0.375158         1.626626
 C         3.314043        -0.164115         0.863748
 C         2.165014        -1.211657         0.734852
 C         1.402763        -0.121619         0.045068
 C        -0.025218         0.059073        -0.201257
 O         2.151770         0.113232        -1.219604
 C         3.275777         0.593260        -0.410892
 C         2.361067         0.947810         0.791746
 O         2.318814         1.998708         1.711795
 H         4.980121        -1.370507         1.418990
 H         5.449644         0.215717         1.364121
 H         4.495460        -0.314365         2.710099
 H         2.224077        -2.334792         0.520338
 H         1.891175        -1.140242         1.813463
 H        -0.589458        -0.180522         0.723131
 H        -0.451331         0.933531        -0.762686
 H        -0.294562        -0.804741        -0.888976
 H         4.053213         0.957058        -1.060533
 H         2.246140         2.777676         1.383452
