19
Iteration:  2951
 C         4.619263        -0.529787         1.776682
 C         3.377844        -0.200516         0.878859
 C         2.179029        -1.143359         0.740036
 C         1.504689        -0.009625        -0.004348
 C         0.039767        -0.019317         0.071492
 O         2.158313         0.080373        -1.278738
 C         3.289971         0.617754        -0.514732
 C         2.431633         0.997296         0.693642
 O         2.076751         2.050910         1.545548
 H         5.399992        -1.100231         1.175141
 H         5.147205         0.323044         2.129595
 H         4.063407        -1.016364         2.534771
 H         2.085933        -2.216775         0.382719
 H         1.740054        -1.022166         1.790539
 H        -0.265014        -0.003612         1.132897
 H        -0.446268         0.656205        -0.638142
 H        -0.301194        -1.014930        -0.146541
 H         4.087133         1.092883        -0.993472
 H         2.276863         2.914224         1.146666
