19
Iteration:  4955
 C         4.584336        -0.349280         1.680986
 C         3.346582        -0.281224         0.880918
 C         2.208130        -1.280322         0.768912
 C         1.427525        -0.028994         0.033672
 C         0.016574        -0.014466        -0.015476
 O         2.189030         0.154532        -1.227045
 C         3.200231         0.709327        -0.454917
 C         2.388869         0.921942         0.749119
 O         2.250346         1.979969         1.551822
 H         5.309916        -1.082432         1.192288
 H         5.166490         0.557478         1.717699
 H         4.277035        -0.329989         2.768685
 H         2.138954        -2.127064         0.075495
 H         1.907793        -1.569756         1.883021
 H        -0.329948         0.312543         0.955489
 H        -0.534691         0.563928        -0.830372
 H        -0.317737        -1.052463        -0.247069
 H         4.131963         1.107627        -0.917213
 H         2.011958         2.603916         0.977155
