19
Iteration:  3569charge 0 multiplicity 1
 C         4.734953        -0.344317         1.594963
 C         3.305087        -0.294587         0.973296
 C         2.141896        -1.209986         0.798982
 C         1.435514        -0.134107         0.053157
 C        -0.060125         0.071210        -0.107027
 O         2.162314         0.163933        -1.232207
 C         3.287447         0.570154        -0.382445
 C         2.418673         0.901504         0.801953
 O         2.218850         2.038209         1.516291
 H         5.297658        -1.235865         1.369582
 H         5.403302         0.583121         1.261089
 H         4.688261        -0.349595         2.683299
 H         2.371625        -2.137708         0.192047
 H         1.660268        -1.430050         1.767995
 H        -0.569730         0.353043         0.873070
 H        -0.494796         0.869829        -0.759947
 H        -0.570166        -0.976724        -0.527672
 H         4.201445         1.097177        -0.716148
 H         1.611158         2.532387         1.009343
