19
Iteration:  4690
 C         4.622436        -0.319991         1.679772
 C         3.399178        -0.231335         0.883807
 C         2.214168        -1.219095         0.816243
 C         1.430295        -0.067466         0.101188
 C        -0.132005         0.002694        -0.150514
 O         2.127289         0.090367        -1.246756
 C         3.200132         0.672185        -0.451819
 C         2.513300         0.897649         0.751485
 O         2.273814         1.998844         1.620339
 H         5.292557        -1.087868         1.324074
 H         5.131626         0.613139         1.429053
 H         4.401334        -0.458144         2.726261
 H         2.263869        -2.010009         0.097357
 H         1.877564        -1.583425         1.819069
 H        -0.739217        -0.495877         0.654098
 H        -0.409267         1.000139        -0.405346
 H        -0.266891        -0.643412        -1.034219
 H         4.175750         1.065288        -0.905958
 H         1.745165         2.615786         1.251600
