19
Iteration:  2230charge 0 multiplicity 1
 C         4.577042        -0.317458         1.784912
 C         3.355121        -0.325110         0.932093
 C         2.154874        -1.242619         0.712310
 C         1.371205         0.001642         0.009210
 C        -0.087903        -0.019845        -0.049085
 O         2.178386         0.149619        -1.239340
 C         3.259600         0.626656        -0.482929
 C         2.458071         0.918619         0.748808
 O         2.342610         2.018117         1.551660
 H         5.105874        -1.224975         1.621968
 H         5.408202         0.372329         1.443116
 H         4.392488        -0.158309         2.789944
 H         2.119648        -2.120725         0.138565
 H         1.780454        -1.551914         1.659696
 H        -0.430338        -0.403383         0.928472
 H        -0.718950         0.899550        -0.273793
 H        -0.318897        -0.773928        -0.869327
 H         4.133347         1.075728        -0.858537
 H         1.998097         2.760099         1.048560
