19
Iteration:   787charge 0 multiplicity 1
 C         4.642632        -0.362853         1.625478
 C         3.391232        -0.260924         0.876776
 C         2.135029        -1.208300         0.812584
 C         1.422363        -0.106190         0.027960
 C        -0.039996         0.084327        -0.150098
 O         2.149818         0.133057        -1.233886
 C         3.300338         0.565775        -0.371101
 C         2.432720         0.901209         0.819157
 O         2.168437         2.023408         1.611327
 H         5.316222        -1.077852         1.102308
 H         5.262232         0.657863         1.637562
 H         4.352078        -0.791572         2.607525
 H         2.308028        -2.117187         0.208131
 H         1.798743        -1.530636         1.787886
 H        -0.445249        -0.010361         0.857368
 H        -0.111135         1.060128        -0.639735
 H        -0.659929        -0.520606        -0.848799
 H         4.128524         0.993550        -0.958222
 H         2.399372         2.733725         1.014471
