19
Iteration:  1390charge 0 multiplicity 1
 C         4.624495        -0.566411         1.748941
 C         3.429707        -0.254852         0.896989
 C         2.234332        -1.244135         0.723828
 C         1.391645        -0.092252         0.046218
 C        -0.098125         0.001565        -0.142073
 O         2.077661         0.203263        -1.218914
 C         3.271451         0.670758        -0.503144
 C         2.454324         0.930808         0.817126
 O         2.286782         2.109790         1.595001
 H         5.456416        -1.188751         1.433817
 H         5.069623         0.433518         2.197558
 H         4.139554        -0.933429         2.733062
 H         2.610590        -1.962289        -0.031137
 H         1.810987        -1.692183         1.627289
 H        -0.700882        -0.107173         0.778259
 H        -0.352020         0.957772        -0.540634
 H        -0.485513        -0.752510        -0.803703
 H         4.037645         1.356662        -0.953584
 H         1.749175         2.796530         0.979093
