19
Iteration:   937
 C         4.626425        -0.454555         1.726739
 C         3.365025        -0.298358         0.890201
 C         2.168760        -1.222041         0.720715
 C         1.453786        -0.019453         0.030342
 C        -0.068803         0.029035         0.037417
 O         2.221908         0.083024        -1.318647
 C         3.297147         0.669965        -0.451460
 C         2.387692         1.013691         0.742357
 O         2.177367         2.022262         1.577266
 H         5.225055        -1.091823         1.157904
 H         5.154347         0.373136         2.247221
 H         4.242201        -1.155966         2.424591
 H         2.257734        -2.176083         0.171746
 H         1.633797        -1.420301         1.751932
 H        -0.595419         0.075838         1.020881
 H        -0.250494         0.997301        -0.438323
 H        -0.500117        -0.765590        -0.611495
 H         4.159619         1.224940        -0.951419
 H         2.382974         2.893916         1.219582
