19
Iteration:   691
 C         4.636892        -0.454358         1.721757
 C         3.387629        -0.197526         0.875472
 C         2.212395        -1.195127         0.772440
 C         1.391523         0.003087        -0.007020
 C        -0.108903        -0.008352        -0.119503
 O         2.122120         0.044413        -1.265491
 C         3.286899         0.615516        -0.404697
 C         2.373613         0.997117         0.726103
 O         2.281396         2.036280         1.664187
 H         5.111655        -1.395137         1.430408
 H         5.352171         0.336464         1.655117
 H         4.299104        -0.474809         2.761033
 H         2.322775        -2.148213         0.107311
 H         1.810622        -1.487033         1.723758
 H        -0.675767        -0.137015         0.781184
 H        -0.373473         0.862248        -0.774337
 H        -0.264280        -0.869717        -0.786624
 H         4.142195         1.102957        -0.891203
 H         2.513001         3.054658         1.332531
