19
Iteration:  1247charge 0 multiplicity 1
 C         4.499106        -0.432657         1.674733
 C         3.287470        -0.294505         0.855701
 C         2.172052        -1.260354         0.647097
 C         1.413710        -0.046773        -0.007788
 C        -0.041480        -0.085988        -0.048898
 O         2.241845         0.171737        -1.296372
 C         3.243300         0.692293        -0.370721
 C         2.414509         0.994787         0.746986
 O         2.327351         2.072375         1.679227
 H         4.767021        -1.443386         1.910858
 H         5.421201         0.266009         1.455679
 H         4.282397        -0.104716         2.723995
 H         2.333658        -2.031282        -0.082389
 H         1.661095        -1.705132         1.487480
 H        -0.180587        -0.341393         1.023345
 H        -0.567056         0.839722        -0.087982
 H        -0.540640        -0.892999        -0.529794
 H         4.163511         1.176989        -0.639778
 H         2.548005         2.792985         1.132844
