19
Iteration:  2852
 C         4.606840        -0.352674         1.646785
 C         3.306792        -0.154540         0.847015
 C         2.162138        -1.099837         0.808232
 C         1.377531        -0.014261         0.033524
 C        -0.067064        -0.043001        -0.209768
 O         2.191721        -0.045081        -1.182662
 C         3.270125         0.586237        -0.495547
 C         2.396235         1.084929         0.690759
 O         2.337901         1.917081         1.752993
 H         5.012391        -1.387021         1.276934
 H         5.283705         0.456057         1.247420
 H         4.478696        -0.221589         2.715806
 H         2.240668        -2.198272         0.683319
 H         1.707867        -1.085323         1.842800
 H        -0.425659        -0.577650         0.739262
 H        -0.488549         0.993344        -0.271565
 H        -0.297380        -0.671436        -1.114806
 H         4.121044         1.024838        -1.009672
 H         2.122213         2.886868         1.407450
