19
Iteration:   467charge 0 multiplicity 1
 C         4.610033        -0.330991         1.587736
 C         3.331664        -0.232937         0.789175
 C         2.034724        -1.171884         0.966581
 C         1.379179         0.002341         0.146666
 C        -0.080554        -0.067403        -0.310844
 O         2.181103         0.091822        -1.222015
 C         3.326596         0.561058        -0.500105
 C         2.496231         1.007737         0.786774
 O         2.356395         1.982572         1.725615
 H         5.259403        -1.117639         1.377348
 H         5.171426         0.639097         1.442868
 H         4.274363        -0.466477         2.571745
 H         2.140934        -2.036944         0.274313
 H         1.654402        -1.307971         2.110118
 H        -0.719596        -0.175155         0.569278
 H        -0.407161         0.821232        -0.912917
 H        -0.220366        -0.882142        -1.058347
 H         4.214156         0.863110        -1.018528
 H         1.722907         2.517138         1.492668
