19
Iteration:   468charge 0 multiplicity 1
 C         4.604772        -0.331568         1.580805
 C         3.327313        -0.236202         0.794277
 C         2.032128        -1.160940         0.968040
 C         1.390181         0.005138         0.151071
 C        -0.074361        -0.071615        -0.309148
 O         2.176255         0.084297        -1.222733
 C         3.331215         0.572963        -0.497768
 C         2.499944         1.011221         0.776621
 O         2.352334         1.973172         1.728848
 H         5.233740        -1.159071         1.346205
 H         5.168343         0.641853         1.452912
 H         4.258333        -0.467139         2.583616
 H         2.142133        -2.005777         0.264666
 H         1.672007        -1.314306         2.117405
 H        -0.748670        -0.176594         0.568422
 H        -0.384816         0.829476        -0.895571
 H        -0.204319        -0.898513        -1.058048
 H         4.226172         0.847582        -1.024978
 H         1.710228         2.574255         1.478870
