19
Iteration:  4141charge 0 multiplicity 1
 C         4.569083        -0.313929         1.762895
 C         3.338724        -0.247799         0.893381
 C         2.134700        -1.326301         0.626112
 C         1.447308        -0.150238         0.041319
 C        -0.045950        -0.015480         0.051288
 O         2.225088         0.141549        -1.272958
 C         3.210584         0.611928        -0.428578
 C         2.458969         0.967743         0.784228
 O         2.323398         2.104561         1.502985
 H         5.117062        -1.188988         1.444284
 H         5.282496         0.603072         1.781132
 H         4.310601        -0.386132         2.842282
 H         2.345614        -2.233894         0.015377
 H         1.548497        -1.447807         1.619031
 H        -0.451568         0.008137         1.116742
 H        -0.461401         0.819716        -0.543673
 H        -0.572119        -0.810947        -0.515122
 H         3.976314         1.088973        -0.939564
 H         1.635308         2.560079         1.216852
