19
Iteration:  1981charge 0 multiplicity 1
 C         4.642815        -0.409881         1.620540
 C         3.396186        -0.245747         0.888801
 C         2.182037        -1.266244         0.833194
 C         1.432952        -0.108253         0.086299
 C        -0.078279         0.006652        -0.237181
 O         2.114917         0.088556        -1.194144
 C         3.220805         0.602561        -0.446026
 C         2.459063         0.953644         0.832120
 O         2.276187         2.143021         1.619852
 H         5.345821        -1.029207         1.084329
 H         5.122166         0.528306         1.782144
 H         4.504350        -0.917293         2.646466
 H         2.354351        -2.275589         0.251918
 H         1.660339        -1.476624         1.799030
 H        -0.683655         0.046164         0.648922
 H        -0.374155         0.855181        -0.888734
 H        -0.524092        -0.820563        -0.734473
 H         3.935386         1.358841        -0.952650
 H         2.194485         2.892543         1.116222
