19
Iteration:  3386
 C         4.723920        -0.425888         1.652011
 C         3.383857        -0.268502         0.899875
 C         2.154728        -1.155472         0.819752
 C         1.462389        -0.046567         0.035398
 C        -0.064419         0.079795        -0.131308
 O         2.171828         0.087956        -1.179496
 C         3.252429         0.596157        -0.422088
 C         2.429736         0.934366         0.728185
 O         2.154935         2.015464         1.546851
 H         5.123715        -1.347628         1.250023
 H         5.418461         0.490272         1.549015
 H         4.642584        -0.537202         2.808475
 H         2.331519        -2.055437         0.249535
 H         1.701399        -1.263245         1.820355
 H        -0.469717         0.249916         0.845414
 H        -0.432925         0.862985        -0.773143
 H        -0.291024        -0.892953        -0.509824
 H         4.123167         1.119587        -0.937251
 H         1.371701         2.411061         1.328243
