19
Iteration:  1034
 C         4.612079        -0.435241         1.717379
 C         3.384113        -0.272545         0.819269
 C         2.148381        -1.127238         0.840266
 C         1.425245        -0.020893         0.019385
 C        -0.119164        -0.079790        -0.140016
 O         2.160896         0.163481        -1.271226
 C         3.250734         0.655766        -0.470004
 C         2.474223         0.982139         0.720861
 O         2.298938         1.951325         1.691117
 H         4.959468        -1.548247         1.697368
 H         5.338539         0.375932         1.363582
 H         4.292900        -0.213922         2.787660
 H         2.224547        -2.037823         0.279046
 H         1.584244        -1.422428         1.729565
 H        -0.590096        -0.254456         0.841161
 H        -0.352770         0.924510        -0.434997
 H        -0.417714        -0.848402        -0.855095
 H         4.136371         1.169639        -0.895554
 H         2.221436         2.851105         1.174124
