19
Iteration:   952
 C         4.611777        -0.461200         1.636011
 C         3.346150        -0.242956         0.886309
 C         2.142368        -1.235753         0.780117
 C         1.405515        -0.118656         0.062025
 C        -0.026330         0.096669        -0.084009
 O         2.233950         0.169960        -1.247897
 C         3.253007         0.612456        -0.428091
 C         2.443903         0.904570         0.759801
 O         2.180228         2.037193         1.610160
 H         5.455519        -0.800941         1.011160
 H         4.913338         0.580485         1.876276
 H         4.590532        -0.958034         2.623300
 H         2.212743        -2.224662         0.252019
 H         1.733922        -1.271548         1.800447
 H        -0.456191         0.092231         0.916989
 H        -0.306377         1.051915        -0.640695
 H        -0.465979        -0.787195        -0.622603
 H         4.204430         0.875166        -0.819191
 H         2.230427         2.725157         0.952438
