19
Iteration:  2248charge 0 multiplicity 1
 C         4.558113        -0.396109         1.738380
 C         3.294839        -0.198067         0.926812
 C         2.152488        -1.147564         0.689796
 C         1.497844        -0.088875        -0.061942
 C        -0.061098        -0.079102         0.037033
 O         2.169058         0.106340        -1.326776
 C         3.306637         0.535482        -0.460636
 C         2.387287         0.995810         0.700093
 O         2.301107         2.070188         1.647115
 H         5.153303        -1.384139         1.661562
 H         5.427712         0.334815         1.629085
 H         4.256868        -0.165319         2.822661
 H         2.368066        -2.121864         0.027186
 H         1.475230        -1.376979         1.624984
 H        -0.446336        -0.403031         0.985797
 H        -0.369840         0.943090        -0.055173
 H        -0.671337        -0.720366        -0.626932
 H         4.287929         0.979749        -0.797107
 H         2.222059         2.890966         1.251511
