19
Iteration:  3036charge 0 multiplicity 1
 C         4.667984        -0.240136         1.595275
 C         3.340691        -0.227713         0.921210
 C         2.188059        -1.224972         0.834487
 C         1.322262        -0.072182         0.039097
 C        -0.110928        -0.000239        -0.296451
 O         2.111593         0.084407        -1.166172
 C         3.282773         0.505956        -0.425324
 C         2.399020         0.943715         0.805383
 O         2.353552         2.005676         1.663822
 H         5.283219        -1.194046         1.522587
 H         5.242935         0.569853         1.303679
 H         4.647913        -0.022568         2.747667
 H         2.322088        -2.178656         0.309802
 H         1.743054        -1.471503         1.830913
 H        -0.585528        -0.297157         0.635223
 H        -0.414031         0.983782        -0.460109
 H        -0.384378        -0.638092        -1.133801
 H         4.118998         0.985950        -0.905406
 H         2.360148         2.862551         1.000761
