19
Iteration:  2938
 C         4.594045        -0.506819         1.732760
 C         3.401200        -0.206480         0.852508
 C         2.167802        -1.187929         0.736403
 C         1.443400        -0.059844        -0.010190
 C        -0.026076        -0.045111         0.059984
 O         2.215961         0.063385        -1.250194
 C         3.278583         0.648361        -0.457637
 C         2.425444         1.017505         0.722596
 O         2.107440         2.121602         1.529806
 H         5.401463        -1.243136         1.328745
 H         5.013048         0.330412         2.165084
 H         4.422107        -1.150955         2.638771
 H         2.530597        -2.048921         0.084533
 H         1.592426        -1.541901         1.648835
 H        -0.154291         0.282939         1.054974
 H        -0.492573         0.758274        -0.370585
 H        -0.490914        -0.942321        -0.216057
 H         4.124057         1.030775        -0.948268
 H         2.320324         2.913370         0.986967
