19
Iteration:  4786charge 0 multiplicity 1
 C         4.631738        -0.484920         1.756130
 C         3.372990        -0.240037         0.889633
 C         2.266731        -1.272166         0.727121
 C         1.467409        -0.023896         0.098165
 C        -0.042372        -0.034829        -0.076300
 O         2.073269         0.190337        -1.202222
 C         3.274754         0.685444        -0.444876
 C         2.442889         0.945311         0.739481
 O         2.205877         2.053563         1.529299
 H         5.259068        -1.122087         1.167758
 H         5.327437         0.430054         1.593430
 H         4.481342        -0.835108         2.794074
 H         2.276267        -2.183762         0.047809
 H         1.826429        -1.540605         1.664979
 H        -0.566570         0.129615         0.858630
 H        -0.354170         0.540141        -0.899270
 H        -0.259415        -1.074551        -0.201165
 H         3.939081         1.394667        -1.048771
 H         1.493256         2.725234         1.011398
