19
Iteration:  1086
 C         4.531589        -0.440572         1.785147
 C         3.278219        -0.242835         0.918642
 C         2.301492        -1.363257         0.599922
 C         1.416879        -0.079975        -0.017809
 C        -0.107649         0.024418        -0.028161
 O         2.142881         0.150167        -1.264652
 C         3.231021         0.694454        -0.415323
 C         2.431892         0.933062         0.773785
 O         2.370611         2.120803         1.603577
 H         5.104407        -1.316199         1.335285
 H         5.156473         0.381338         1.742888
 H         4.268174        -0.665809         2.841938
 H         2.475474        -2.323184         0.035368
 H         1.976107        -1.639911         1.576328
 H        -0.450347        -0.111347         1.051604
 H        -0.434656         0.994457        -0.388865
 H        -0.535249        -0.797776        -0.619654
 H         4.111915         1.239737        -0.820978
 H         1.971166         2.863760         0.918554
