19
Iteration:  1387
 C         4.619598        -0.533461         1.745625
 C         3.394230        -0.258144         0.885109
 C         2.234755        -1.254027         0.736808
 C         1.388867        -0.102751         0.058675
 C        -0.086304        -0.001044        -0.146531
 O         2.097821         0.224181        -1.234224
 C         3.262815         0.664342        -0.481606
 C         2.492065         0.921834         0.843041
 O         2.270625         2.100730         1.571637
 H         5.372176        -1.173496         1.343918
 H         5.022409         0.427976         2.179181
 H         4.273211        -0.995965         2.653845
 H         2.539223        -1.945996        -0.049923
 H         1.794434        -1.680469         1.753614
 H        -0.709502        -0.011015         0.798525
 H        -0.341545         1.029222        -0.508577
 H        -0.493430        -0.779863        -0.846937
 H         3.958307         1.301897        -0.975990
 H         1.878217         2.651689         1.051883
