19
Iteration:   851
 C         4.626484        -0.406840         1.648244
 C         3.296428        -0.270203         0.860951
 C         2.146174        -1.224776         0.803256
 C         1.376855        -0.046371         0.030342
 C        -0.090756        -0.017052        -0.226007
 O         2.188540         0.138140        -1.223514
 C         3.303239         0.568957        -0.428678
 C         2.398012         0.959209         0.754403
 O         2.322525         2.074018         1.743672
 H         5.166964        -1.288607         1.459054
 H         5.308756         0.397186         1.169771
 H         4.662004        -0.210869         2.694725
 H         2.411677        -2.058695         0.155171
 H         1.743869        -1.614642         1.798618
 H        -0.580313        -0.126472         0.779735
 H        -0.439101         0.943619        -0.655462
 H        -0.441781        -0.877661        -0.868002
 H         4.123984         1.073703        -0.965910
 H         2.047759         2.872670         1.297720
