19
Iteration:  2899
 C         4.711044        -0.358846         1.683784
 C         3.357283        -0.339443         0.952572
 C         2.192667        -1.273872         0.725518
 C         1.433276        -0.126395         0.024263
 C        -0.065046         0.021121        -0.137519
 O         2.132960         0.155332        -1.148076
 C         3.191657         0.607462        -0.344668
 C         2.374389         0.910212         0.862228
 O         2.301464         2.127390         1.445405
 H         5.314422        -1.103846         1.170515
 H         5.084350         0.788096         1.667690
 H         4.469397        -0.637098         2.698010
 H         2.275776        -2.012871        -0.077054
 H         1.837228        -1.871860         1.566749
 H        -0.467600         0.003018         0.967785
 H        -0.285384         1.086970        -0.622514
 H        -0.552394        -0.797916        -0.770475
 H         4.014717         1.147893        -0.799216
 H         1.875499         2.849697         0.744128
