19
Iteration:  1374
 C         4.583140        -0.438786         1.686116
 C         3.359047        -0.306732         0.906904
 C         2.203840        -1.272554         0.699058
 C         1.434665        -0.076767         0.090083
 C        -0.048311         0.041915        -0.122038
 O         2.168100         0.244953        -1.221596
 C         3.197880         0.642766        -0.373483
 C         2.459180         0.924730         0.814001
 O         2.256576         2.028079         1.555794
 H         5.330682        -0.807647         0.935877
 H         5.051774         0.443997         1.945398
 H         4.482044        -1.098146         2.505523
 H         2.212853        -2.283962         0.251010
 H         1.803871        -1.482750         1.760292
 H        -0.573629        -0.098260         0.842139
 H        -0.208671         1.017768        -0.689092
 H        -0.432011        -0.759188        -0.830479
 H         4.136962         1.006590        -0.754555
 H         1.986319         2.781726         0.775202
