19
Iteration:  1439charge 0 multiplicity 1
 C         4.510471        -0.419816         1.705967
 C         3.302684        -0.286713         0.865421
 C         2.170507        -1.241709         0.697795
 C         1.415728        -0.023377        -0.080324
 C        -0.078013        -0.110929        -0.050380
 O         2.207210         0.222633        -1.265919
 C         3.299162         0.645477        -0.402083
 C         2.429837         1.028596         0.765340
 O         2.335224         2.009540         1.666003
 H         4.991000        -1.470971         1.545264
 H         5.347372         0.152151         1.377557
 H         4.385953        -0.159699         2.766696
 H         2.314603        -2.258148         0.334903
 H         1.686828        -1.238533         1.708182
 H        -0.414897        -0.423077         0.946978
 H        -0.676945         0.777061        -0.389476
 H        -0.501124        -0.960732        -0.650093
 H         4.203884         1.000056        -0.823019
 H         2.241421         3.033573         1.248671
