19
Iteration:  4478charge 0 multiplicity 1
 C         4.599168        -0.343058         1.721467
 C         3.331856        -0.252247         0.905199
 C         2.268749        -1.256442         0.718893
 C         1.397756        -0.083696         0.055292
 C        -0.078973        -0.048039        -0.071869
 O         2.114356         0.148531        -1.227934
 C         3.229068         0.604870        -0.411797
 C         2.433384         0.938582         0.761997
 O         2.288191         2.096198         1.544312
 H         4.958993        -1.362997         1.537021
 H         5.454444         0.442630         1.559588
 H         4.382213        -0.540368         2.782249
 H         2.601397        -1.951452        -0.142347
 H         1.933451        -1.671656         1.705938
 H        -0.595851        -0.566420         0.766477
 H        -0.450516         0.989503        -0.304194
 H        -0.319876        -0.810215        -0.835362
 H         4.005162         1.164507        -0.858168
 H         2.272519         2.934884         1.068683
