19
Iteration:  3470charge 0 multiplicity 1
 C         4.656535        -0.298265         1.726445
 C         3.313787        -0.345184         0.927922
 C         2.164670        -1.288986         0.650090
 C         1.366428        -0.053771         0.013396
 C        -0.134978        -0.055444        -0.094421
 O         2.118589         0.193672        -1.177083
 C         3.328447         0.534699        -0.354659
 C         2.432603         0.931069         0.877245
 O         2.362284         2.130373         1.464138
 H         5.564763        -0.839287         1.531912
 H         5.062206         0.755661         1.513299
 H         4.352111        -0.541932         2.715051
 H         2.250173        -2.192339        -0.087232
 H         1.812048        -1.670097         1.645902
 H        -0.629428        -0.477443         0.839488
 H        -0.644941         0.864718        -0.425852
 H        -0.473552        -0.852237        -0.881218
 H         4.238823         1.033461        -0.745503
 H         2.104151         2.907735         0.843098
