19
Iteration:  2027charge 0 multiplicity 1
 C         4.607807        -0.299534         1.640574
 C         3.296568        -0.259384         0.870275
 C         2.093123        -1.200453         0.827817
 C         1.394830        -0.050049        -0.006987
 C        -0.049851        -0.008421        -0.164167
 O         2.173119         0.046808        -1.220800
 C         3.268245         0.597933        -0.448270
 C         2.440016         0.985074         0.707765
 O         2.375005         2.016033         1.721823
 H         5.216175        -1.243205         1.517911
 H         5.223776         0.511824         1.356010
 H         4.491667        -0.202857         2.786450
 H         2.252080        -2.218965         0.323411
 H         1.930935        -1.340740         1.891880
 H        -0.627719        -0.264982         0.768551
 H        -0.401796         0.961573        -0.534700
 H        -0.461160        -0.695194        -0.934740
 H         4.054923         1.066330        -1.058497
 H         1.804579         2.496686         1.237627
