19
Iteration:  3094
 C         4.588409        -0.481447         1.792657
 C         3.363212        -0.159333         0.906790
 C         2.226912        -1.187531         0.694396
 C         1.417774        -0.083794         0.051583
 C        -0.078306        -0.062615        -0.016414
 O         2.139428         0.063868        -1.309171
 C         3.270587         0.608380        -0.447914
 C         2.381583         0.977105         0.721468
 O         2.309988         2.168221         1.567738
 H         5.302230        -1.291922         1.255881
 H         5.296817         0.447009         1.783170
 H         4.113693        -0.853566         2.733532
 H         2.500294        -2.126937         0.093790
 H         1.824037        -1.459214         1.726070
 H        -0.427935        -0.388338         0.965133
 H        -0.428598         0.977891        -0.234052
 H        -0.438395        -0.733143        -0.708061
 H         4.226732         1.054558        -0.829086
 H         1.658209         2.597447         1.132543
