19
Iteration:   525
 C         4.582786        -0.461314         1.660168
 C         3.325563        -0.278726         0.923977
 C         2.189681        -1.288170         0.678330
 C         1.457750        -0.109232         0.080117
 C        -0.088571         0.040017        -0.113067
 O         2.239670         0.160332        -1.183381
 C         3.253032         0.638602        -0.384488
 C         2.414491         0.947827         0.836458
 O         2.252014         2.120148         1.514534
 H         5.126464        -1.341871         1.276439
 H         5.163735         0.419941         1.486156
 H         4.452969        -0.483523         2.763031
 H         2.526579        -2.236098         0.196873
 H         1.669377        -1.560690         1.630768
 H        -0.606399         0.072492         0.896510
 H        -0.370776         0.981658        -0.565664
 H        -0.503801        -0.864669        -0.593929
 H         4.101141         1.078882        -0.960851
 H         1.819172         2.840449         0.888477
