19
Iteration:  2658
 C         4.652454        -0.230548         1.644541
 C         3.321701        -0.319739         0.909969
 C         2.163606        -1.229834         0.800667
 C         1.393992        -0.057171         0.069508
 C        -0.125329         0.025827        -0.226763
 O         2.160136         0.091673        -1.208650
 C         3.232236         0.559391        -0.379445
 C         2.445806         0.918015         0.822968
 O         2.333108         2.040513         1.593157
 H         5.131811        -1.211238         1.461235
 H         5.255622         0.748205         1.259808
 H         4.490277        -0.289594         2.740881
 H         2.288614        -2.209594         0.177621
 H         1.838618        -1.738403         1.748729
 H        -0.720904        -0.168889         0.695158
 H        -0.463769         0.983352        -0.637165
 H        -0.369426        -0.693219        -0.996885
 H         4.183235         1.019719        -0.821876
 H         2.318592         2.711764         1.020629
