19
Iteration:  1168charge 0 multiplicity 1
 C         4.658083        -0.459682         1.562787
 C         3.323206        -0.244216         0.881141
 C         2.157335        -1.179315         0.819324
 C         1.380569        -0.047395        -0.042920
 C        -0.047761         0.124362        -0.166341
 O         2.294186         0.051916        -1.181652
 C         3.232399         0.598474        -0.389541
 C         2.317436         0.938902         0.778836
 O         2.271354         2.023692         1.688076
 H         5.467619        -0.960779         0.875495
 H         5.294867         0.538538         1.828451
 H         4.622206        -1.030593         2.502874
 H         2.301717        -2.015103         0.201277
 H         1.790764        -1.319359         1.871328
 H        -0.500673        -0.052429         0.770480
 H        -0.494881         1.020877        -0.622217
 H        -0.408290        -0.711347        -0.775715
 H         3.969789         1.199284        -0.960094
 H         1.515059         2.604310         1.382336
