19
Iteration:  4805charge 0 multiplicity 1
 C         4.636534        -0.505120         1.656683
 C         3.384749        -0.170382         0.903039
 C         2.249026        -1.114389         0.723841
 C         1.437039        -0.110911         0.004916
 C        -0.054735        -0.105492         0.010675
 O         2.193211         0.152933        -1.238618
 C         3.181067         0.679277        -0.420289
 C         2.453069         0.960020         0.787912
 O         2.169810         2.077214         1.554081
 H         5.172361        -1.491963         1.412118
 H         5.379237         0.254717         1.862380
 H         4.273035        -1.018169         2.587161
 H         2.449366        -1.958542         0.006358
 H         1.828901        -1.423470         1.640464
 H        -0.551361         0.010276         0.953826
 H        -0.382686         0.720176        -0.717262
 H        -0.578775        -1.051449        -0.309764
 H         4.149640         1.034708        -0.913293
 H         1.869617         2.913330         0.920257
