19
Iteration:   722charge 0 multiplicity 1
 C         4.514349        -0.525925         1.783949
 C         3.399226        -0.261817         0.850093
 C         2.195821        -1.259731         0.791488
 C         1.466852        -0.029886        -0.005139
 C        -0.005511        -0.035590         0.054204
 O         2.107729         0.203611        -1.293277
 C         3.316677         0.741261        -0.462929
 C         2.485970         0.952175         0.745770
 O         2.222363         2.059425         1.494880
 H         5.151464        -1.371374         1.470932
 H         5.151071         0.443736         2.029222
 H         3.951544        -0.900998         2.665963
 H         2.204775        -2.245361         0.175253
 H         1.775455        -1.422327         1.790853
 H        -0.359537        -0.192149         1.082726
 H        -0.381225         0.882509        -0.438389
 H        -0.359222        -0.865435        -0.600023
 H         4.251856         1.068531        -0.902966
 H         1.713515         2.696222         0.895720
