19
Iteration:  4791charge 0 multiplicity 1
 C         4.661775        -0.509113         1.729514
 C         3.394427        -0.190917         0.920474
 C         2.229575        -1.236752         0.711818
 C         1.453329        -0.006133         0.113203
 C        -0.023594        -0.073720        -0.057872
 O         2.067800         0.172136        -1.208320
 C         3.276721         0.725169        -0.448681
 C         2.405961         0.950818         0.742448
 O         2.203231         2.020534         1.498395
 H         5.219685        -1.236560         1.071949
 H         5.351809         0.325332         1.844463
 H         4.315711        -0.689198         2.756875
 H         2.390353        -2.094185         0.083250
 H         1.744079        -1.608304         1.699585
 H        -0.449501         0.274578         0.943107
 H        -0.373446         0.629295        -0.887024
 H        -0.230528        -1.148796        -0.335292
 H         4.081387         1.266091        -0.868097
 H         1.691995         2.552272         1.010609
