19
Iteration:  4582charge 0 multiplicity 1
 C         4.651742        -0.409901         1.597302
 C         3.375203        -0.221466         0.902438
 C         2.221078        -1.251261         0.714179
 C         1.394017        -0.116345         0.090422
 C        -0.067360        -0.012256        -0.121696
 O         2.190567         0.037946        -1.178548
 C         3.241050         0.701844        -0.390346
 C         2.371102         1.010900         0.766905
 O         2.210893         2.031771         1.581791
 H         5.413520        -1.011941         1.014286
 H         5.154916         0.579965         1.680230
 H         4.532309        -0.603618         2.683783
 H         2.335432        -2.189613         0.178535
 H         1.797563        -1.574969         1.718194
 H        -0.428719         0.401197         0.883942
 H        -0.334893         0.796715        -0.793692
 H        -0.729597        -0.870679        -0.455094
 H         4.172385         1.335547        -0.768297
 H         2.276893         2.857188         1.188852
