19
Iteration:  3218charge 0 multiplicity 1
 C         4.768205        -0.431199         1.656167
 C         3.388676        -0.240908         0.867288
 C         2.128377        -1.230195         0.817307
 C         1.388618        -0.092347         0.107497
 C        -0.113116         0.022868        -0.201614
 O         2.192792         0.094706        -1.173569
 C         3.221584         0.667255        -0.448682
 C         2.496675         0.933702         0.802493
 O         2.177324         2.039404         1.596376
 H         5.313437        -1.381211         1.466809
 H         5.295639         0.587377         1.337631
 H         4.499869        -0.370104         2.717854
 H         2.171447        -2.193295         0.229008
 H         1.561607        -1.251340         1.758090
 H        -0.629511        -0.055706         0.748658
 H        -0.369599         0.986239        -0.546656
 H        -0.339059        -0.750905        -0.922264
 H         4.004461         1.204669        -1.085409
 H         2.080520         2.783936         0.824895
