19
Iteration:   943charge 0 multiplicity 1
 C         4.612487        -0.450963         1.707991
 C         3.337566        -0.240206         0.860685
 C         2.144958        -1.230951         0.749076
 C         1.460768        -0.081181         0.062845
 C        -0.057550         0.051621         0.025064
 O         2.239304         0.128394        -1.303315
 C         3.294370         0.664991        -0.469782
 C         2.381613         0.932398         0.744469
 O         2.177068         2.038425         1.599669
 H         5.419377        -0.997982         1.006556
 H         5.109915         0.440155         2.065135
 H         4.488263        -1.198277         2.614938
 H         2.136141        -2.228983         0.287981
 H         1.649485        -1.353690         1.646048
 H        -0.693633         0.115946         0.913081
 H        -0.198058         0.980869        -0.568765
 H        -0.423358        -0.709477        -0.649631
 H         4.255132         0.958923        -0.830799
 H         2.360221         2.835967         1.099303
