19
Iteration:  3297
 C         4.477446        -0.390729         1.720427
 C         3.370191        -0.265424         0.801045
 C         2.228995        -1.170829         0.825031
 C         1.431307        -0.058300         0.053211
 C        -0.033708        -0.083519        -0.071198
 O         2.082562         0.146720        -1.191706
 C         3.307178         0.656074        -0.458113
 C         2.460359         0.959261         0.699878
 O         2.293166         2.029113         1.551269
 H         5.128856        -1.033378         1.204440
 H         4.946232         0.597458         2.145638
 H         4.114500        -0.793274         2.717135
 H         2.347691        -2.167461         0.382174
 H         1.907004        -1.299840         1.868148
 H        -0.494092        -0.491307         0.810004
 H        -0.416796         0.843235        -0.372967
 H        -0.319895        -0.838750        -0.849616
 H         4.106309         1.076782        -0.971622
 H         2.623815         2.797082         0.958768
