19
Iteration:  1730
 C         4.612009        -0.411323         1.652560
 C         3.328643        -0.281795         0.912156
 C         2.188083        -1.237806         0.631043
 C         1.411555        -0.068788        -0.007004
 C        -0.016852         0.038480         0.041910
 O         2.219511         0.170726        -1.232196
 C         3.298218         0.611693        -0.358194
 C         2.426733         0.888618         0.800155
 O         2.151761         2.058843         1.528019
 H         5.379163        -1.028698         1.264836
 H         4.931537         0.638820         1.761665
 H         4.446443        -0.778520         2.743130
 H         2.366874        -2.168383        -0.010208
 H         1.666962        -1.539152         1.500629
 H        -0.286588        -0.015313         1.132106
 H        -0.406874         1.071019        -0.304112
 H        -0.515195        -0.867086        -0.404293
 H         4.107412         1.126474        -0.933828
 H         2.245729         2.678837         0.934376
