19
Iteration:  3599
 C         4.631611        -0.386438         1.649796
 C         3.325498        -0.251656         0.878328
 C         2.249131        -1.310258         0.666073
 C         1.409217        -0.169097         0.084904
 C        -0.056422         0.116940        -0.056186
 O         2.190534         0.029653        -1.142565
 C         3.227076         0.683812        -0.412538
 C         2.423801         0.918416         0.823570
 O         2.173904         2.127818         1.514278
 H         5.170591        -1.353638         1.392862
 H         5.333196         0.475198         1.570986
 H         4.575292        -0.304498         2.724612
 H         2.458144        -2.038782        -0.079934
 H         1.951243        -1.743765         1.595963
 H        -0.499340         0.145435         0.993464
 H        -0.374682         1.013227        -0.614962
 H        -0.689724        -0.735233        -0.459705
 H         4.109362         1.184018        -0.966634
 H         2.468383         2.874076         0.783925
