19
Iteration:  2606charge 0 multiplicity 1
 C         4.515345        -0.351181         1.808037
 C         3.364281        -0.222026         0.807510
 C         2.236429        -1.233091         0.710860
 C         1.444910        -0.084247         0.042618
 C        -0.139340        -0.018381        -0.023863
 O         2.193623         0.028033        -1.249446
 C         3.253350         0.677729        -0.483455
 C         2.399286         1.000427         0.698349
 O         2.353143         2.039586         1.627811
 H         4.833107        -1.440164         1.746473
 H         5.227704         0.226760         1.354452
 H         3.998380        -0.221626         2.807188
 H         2.407655        -2.166861         0.088200
 H         1.802014        -1.293302         1.752267
 H        -0.380082        -0.343038         0.992411
 H        -0.735062         0.865101        -0.318469
 H        -0.464561        -0.723691        -0.767958
 H         4.127237         1.156104        -1.002553
 H         2.408318         2.886916         1.063498
