19
Iteration:    64charge 0 multiplicity 1
 C         4.434333        -0.366292         1.794856
 C         3.374306        -0.291969         0.812010
 C         2.197749        -1.231821         0.782334
 C         1.420381        -0.071342         0.083368
 C        -0.064461        -0.015236         0.084338
 O         2.225901         0.149776        -1.249244
 C         3.261541         0.697014        -0.451033
 C         2.377827         0.856164         0.694729
 O         2.318870         2.034922         1.368221
 H         5.249170        -0.963313         1.568604
 H         4.903170         0.700793         1.755778
 H         4.115331        -0.527001         2.812684
 H         2.142158        -2.195620         0.209746
 H         1.879236        -1.210451         1.864692
 H        -0.573233        -0.212869         1.062228
 H        -0.368053         0.974029        -0.268710
 H        -0.335945        -0.804894        -0.639978
 H         3.955631         1.433107        -0.822039
 H         3.153854         2.190369         1.423467
