19
Iteration:   397charge 0 multiplicity 1
 C         4.576856        -0.463705         1.818231
 C         3.445622        -0.280759         0.838124
 C         2.143988        -1.198473         0.654590
 C         1.447166        -0.077048         0.029506
 C        -0.054217         0.031924         0.041685
 O         2.150934         0.122180        -1.236654
 C         3.303927         0.589271        -0.436397
 C         2.457371         0.910779         0.727399
 O         2.141817         2.135757         1.485536
 H         5.372601        -1.236088         1.655047
 H         5.011715         0.469464         2.015717
 H         3.956490        -0.803364         2.682586
 H         2.309310        -1.997584        -0.119782
 H         1.840830        -1.561704         1.607956
 H        -0.234440        -0.092913         1.122204
 H        -0.415712         0.999021        -0.276542
 H        -0.593035        -0.700749        -0.534338
 H         4.187223         1.106340        -0.851604
 H         2.885052         2.808093         1.122075
