19
Iteration:  3697charge 0 multiplicity 1
 C         4.723758        -0.366135         1.627919
 C         3.319296        -0.264339         0.988487
 C         2.198329        -1.267711         0.761177
 C         1.367065        -0.218832         0.128386
 C        -0.137335         0.026375        -0.226279
 O         2.143652         0.073369        -1.167456
 C         3.200937         0.620222        -0.422996
 C         2.432735         0.969870         0.845969
 O         2.307310         2.164234         1.564447
 H         5.392178        -1.042911         0.996785
 H         5.230354         0.603755         1.483444
 H         4.928711        -0.566068         2.698238
 H         2.459958        -2.040686         0.016374
 H         1.691582        -1.661199         1.690998
 H        -0.912249        -0.188649         0.586358
 H        -0.247781         1.004320        -0.702240
 H        -0.614284        -0.544386        -0.924674
 H         4.095280         0.989983        -0.925673
 H         2.357967         2.908530         0.800890
