19
Iteration:  4343charge 0 multiplicity 1
 C         4.620136        -0.268465         1.715653
 C         3.315063        -0.234506         0.886737
 C         2.186117        -1.227712         0.706894
 C         1.438661        -0.087502        -0.019664
 C        -0.069066        -0.028439        -0.070851
 O         2.145576         0.079446        -1.240981
 C         3.243829         0.572320        -0.445711
 C         2.410137         0.952927         0.791561
 O         2.332493         2.028100         1.619872
 H         5.428119        -1.070042         1.411242
 H         5.106222         0.635491         1.513501
 H         4.404399        -0.350564         2.837040
 H         2.221126        -2.185708         0.122651
 H         1.537680        -1.492666         1.542372
 H        -0.348342         0.132748         0.953338
 H        -0.296275         0.883390        -0.579029
 H        -0.643377        -0.807803        -0.579148
 H         4.160074         0.954239        -0.792497
 H         1.904071         2.693026         1.223278
