19
Iteration:  4104charge 0 multiplicity 1
 C         4.518073        -0.324098         1.695326
 C         3.367696        -0.170239         0.872532
 C         2.250110        -1.185073         0.796380
 C         1.425046        -0.071461         0.100988
 C        -0.096565        -0.053380        -0.104087
 O         2.139923         0.108490        -1.196564
 C         3.255533         0.577462        -0.501641
 C         2.452805         0.948092         0.715020
 O         2.283921         2.012313         1.590034
 H         4.957035        -1.328806         1.429666
 H         5.406086         0.491986         1.511308
 H         4.197751        -0.480829         2.718966
 H         2.385728        -2.155761         0.256739
 H         1.705094        -1.392129         1.681787
 H        -0.681581        -0.329028         0.769571
 H        -0.345467         0.978216        -0.411724
 H        -0.252704        -0.915305        -0.821368
 H         4.182124         0.995208        -1.033683
 H         2.448818         2.809553         1.202091
