19
Iteration:  3897charge 0 multiplicity 1
 C         4.636099        -0.425367         1.619385
 C         3.381089        -0.177929         0.893938
 C         2.160653        -1.170723         0.842729
 C         1.373263        -0.083194         0.083459
 C        -0.121552        -0.041737        -0.169561
 O         2.167161         0.034358        -1.176852
 C         3.260790         0.641360        -0.490912
 C         2.493490         1.001279         0.779875
 O         2.270924         2.088143         1.635216
 H         5.257312        -1.165889         1.251778
 H         5.259312         0.569373         1.557753
 H         4.382360        -0.602967         2.619475
 H         2.175290        -2.158029         0.182699
 H         2.000678        -1.563278         1.842093
 H        -0.907269        -0.275466         0.550642
 H        -0.421735         0.894070        -0.668689
 H        -0.081644        -0.849568        -0.972521
 H         4.228559         0.814575        -0.987029
 H         1.751319         2.716549         1.083039
