19
Iteration:  3030
 C         4.653605        -0.210747         1.623539
 C         3.283191        -0.223057         0.902786
 C         2.189648        -1.296610         0.833988
 C         1.334282        -0.096689         0.042907
 C        -0.125601         0.007504        -0.282241
 O         2.135110         0.082129        -1.125653
 C         3.282250         0.551943        -0.396314
 C         2.425875         0.905749         0.797218
 O         2.372980         2.031143         1.629267
 H         5.115436        -1.206594         1.348278
 H         5.259255         0.656488         1.072164
 H         4.790559        -0.071592         2.655836
 H         2.519929        -2.127545         0.144127
 H         1.710561        -1.509020         1.792841
 H        -0.822245        -0.127692         0.598374
 H        -0.440800         1.107032        -0.554774
 H        -0.389479        -0.634809        -1.149543
 H         4.236214         0.890430        -0.929710
 H         2.228708         2.807452         1.204649
