19
Iteration:  2028
 C         4.609934        -0.300463         1.644584
 C         3.302407        -0.266418         0.868653
 C         2.083475        -1.202790         0.819923
 C         1.400149        -0.049401        -0.011561
 C        -0.041440        -0.011546        -0.162070
 O         2.170202         0.056669        -1.216242
 C         3.267708         0.596102        -0.452262
 C         2.442718         0.988245         0.707861
 O         2.373196         2.011256         1.720637
 H         5.236890        -1.268606         1.552687
 H         5.225679         0.560372         1.353763
 H         4.503797        -0.182174         2.776116
 H         2.232212        -2.206524         0.359608
 H         1.927261        -1.310785         1.889010
 H        -0.642885        -0.281575         0.779666
 H        -0.403215         0.977802        -0.501023
 H        -0.513334        -0.732387        -0.933304
 H         4.058613         1.021187        -1.029309
 H         1.764088         2.548765         1.194715
