19
Iteration:  4809charge 0 multiplicity 1
 C         4.609245        -0.538071         1.668620
 C         3.378499        -0.198577         0.883127
 C         2.288210        -1.129214         0.723345
 C         1.443604        -0.124229        -0.013497
 C        -0.099254        -0.100710         0.005816
 O         2.226376         0.143456        -1.253222
 C         3.193635         0.659846        -0.429095
 C         2.440564         1.003336         0.806032
 O         2.155047         2.123009         1.577854
 H         5.196060        -1.324243         1.192911
 H         5.398617         0.283841         1.770831
 H         4.270045        -0.876269         2.653353
 H         2.418308        -2.039595         0.082982
 H         1.808769        -1.397887         1.682924
 H        -0.478548        -0.035674         1.044095
 H        -0.414891         0.680907        -0.598858
 H        -0.546349        -1.011376        -0.332750
 H         4.041205         1.050384        -0.964529
 H         2.008280         2.805420         1.033029
