19
Iteration:  3360
 C         4.602886        -0.313788         1.555892
 C         3.284246        -0.308312         0.922001
 C         2.131886        -1.299404         0.816596
 C         1.455624        -0.170633         0.062104
 C        -0.078017         0.043484        -0.121936
 O         2.252085         0.077045        -1.266404
 C         3.282399         0.614920        -0.370097
 C         2.426501         0.960025         0.801728
 O         2.247352         2.133817         1.624670
 H         5.144661        -1.168818         1.024734
 H         5.120471         0.730470         1.303872
 H         4.748958        -0.486816         2.634374
 H         2.445532        -2.081620        -0.006592
 H         1.595836        -1.602010         1.770699
 H        -0.439363         0.519026         0.795424
 H        -0.248872         0.885428        -0.779892
 H        -0.589889        -0.847905        -0.507639
 H         4.246699         0.905975        -0.641585
 H         1.579406         2.713589         1.175245
