19
Iteration:  1310
 C         4.623154        -0.390617         1.622751
 C         3.355835        -0.228187         0.845546
 C         2.188341        -1.208644         0.770842
 C         1.422794        -0.076404         0.087448
 C         0.016619         0.109398        -0.233282
 O         2.159362         0.114786        -1.179093
 C         3.236024         0.588892        -0.454229
 C         2.429869         0.898056         0.775748
 O         2.223971         1.952433         1.688759
 H         5.106388        -1.264784         1.151788
 H         5.298618         0.557561         1.592586
 H         4.433790        -0.718118         2.629449
 H         2.236948        -2.186623         0.266155
 H         1.799720        -1.271698         1.879714
 H        -0.381720         0.176867         0.798235
 H        -0.234137         1.117326        -0.686414
 H        -0.443144        -0.691052        -0.865458
 H         3.980932         1.287760        -0.788498
 H         1.657696         2.859721         1.384319
