19
Iteration:  4868
 C         4.776065        -0.284713         1.633340
 C         3.397102        -0.281534         0.934598
 C         2.221684        -1.335702         0.839018
 C         1.405276        -0.107784         0.011974
 C        -0.136769        -0.006297        -0.186489
 O         2.069860         0.173683        -1.200771
 C         3.238461         0.597092        -0.379547
 C         2.423695         0.970478         0.780981
 O         2.264095         2.049280         1.583368
 H         5.341863        -1.256046         1.342797
 H         5.218766         0.688996         1.608973
 H         4.609992        -0.616634         2.717378
 H         2.286263        -2.211395         0.185423
 H         1.716289        -1.661286         1.831337
 H        -0.751049        -0.375157         0.644855
 H        -0.532028         1.064741        -0.431382
 H        -0.198200        -0.554754        -1.183809
 H         4.080931         1.148637        -0.905234
 H         1.835940         2.847274         0.958343
