19
Iteration:   429
 C         4.593223        -0.298208         1.708048
 C         3.278657        -0.202874         0.984039
 C         2.142948        -1.304976         0.727215
 C         1.374908        -0.122689         0.040073
 C        -0.061466         0.050306        -0.157351
 O         2.194055         0.097477        -1.246789
 C         3.182838         0.609455        -0.424481
 C         2.388772         0.918058         0.769205
 O         2.440392         2.041050         1.594680
 H         5.267468        -1.125269         1.260265
 H         5.089812         0.641282         1.758890
 H         4.427716        -0.402482         2.834348
 H         2.433529        -2.049932        -0.034201
 H         1.712445        -1.875812         1.476156
 H        -0.541851        -0.046160         0.838928
 H        -0.277614         1.049943        -0.473735
 H        -0.479441        -0.781179        -0.700510
 H         4.099448         1.110646        -0.791519
 H         2.179363         2.731415         0.997561
