19
Iteration:   398
 C         4.569694        -0.465225         1.810861
 C         3.444827        -0.275941         0.833736
 C         2.147030        -1.198240         0.648551
 C         1.447852        -0.078245         0.026074
 C        -0.058425         0.029304         0.038730
 O         2.146137         0.112400        -1.234664
 C         3.310740         0.591628        -0.425240
 C         2.457405         0.911852         0.731139
 O         2.146401         2.137458         1.492442
 H         5.354331        -1.208293         1.644441
 H         4.982840         0.492392         2.001851
 H         3.968083        -0.761574         2.684995
 H         2.326506        -2.013528        -0.129585
 H         1.833532        -1.597380         1.629538
 H        -0.258551        -0.081066         1.114421
 H        -0.396384         1.022689        -0.275443
 H        -0.601059        -0.707385        -0.536161
 H         4.210979         1.103308        -0.835112
 H         2.922083         2.832127         1.093814
