19
Iteration:  1278charge 0 multiplicity 1
 C         4.619436        -0.421940         1.776890
 C         3.356228        -0.294169         0.880032
 C         2.236736        -1.253955         0.703475
 C         1.406157        -0.034682         0.074619
 C        -0.126144         0.026253        -0.164863
 O         2.134138         0.194112        -1.226440
 C         3.261737         0.641033        -0.513362
 C         2.473196         0.979670         0.753877
 O         2.287465         1.986435         1.651972
 H         4.973488        -1.454146         1.671854
 H         5.570990         0.194077         1.481724
 H         4.255906        -0.192546         2.768038
 H         2.363161        -2.052003         0.003353
 H         1.793584        -1.691914         1.642866
 H        -0.385792        -0.172312         0.855754
 H        -0.481711         0.976619        -0.574561
 H        -0.520033        -0.827542        -0.718352
 H         4.102202         1.215581        -0.879422
 H         1.715507         2.671421         1.304035
