19
Iteration:  4969charge 0 multiplicity 1
 C         4.606046        -0.349006         1.710143
 C         3.356316        -0.218457         0.890166
 C         2.227345        -1.265198         0.642875
 C         1.435728        -0.160922         0.083274
 C        -0.081812        -0.030243        -0.024424
 O         2.140734         0.133028        -1.228500
 C         3.262650         0.647346        -0.415359
 C         2.430900         0.925551         0.776491
 O         2.257566         2.086540         1.559242
 H         5.205980        -1.236100         1.309594
 H         5.259263         0.549417         1.577508
 H         4.496074        -0.677307         2.772678
 H         2.565070        -2.163158         0.014722
 H         1.702873        -1.508323         1.543188
 H        -0.596509         0.388835         0.856325
 H        -0.111439         0.704428        -0.861526
 H        -0.681158        -0.996342        -0.146058
 H         4.040483         1.200649        -0.846948
 H         1.759469         2.895595         1.023249
