19
Iteration:  3826
 C         4.655944        -0.272465         1.708241
 C         3.317885        -0.190450         0.944578
 C         2.182344        -1.241492         0.675500
 C         1.402217        -0.117938         0.090527
 C        -0.096886         0.030362        -0.105179
 O         2.092169         0.151247        -1.190190
 C         3.363828         0.521652        -0.335616
 C         2.329292         0.927216         0.753836
 O         2.341887         2.002791         1.492128
 H         5.272795        -1.074938         1.167452
 H         5.246298         0.516001         1.594646
 H         4.580501        -0.705780         2.759577
 H         2.442220        -1.996494        -0.042512
 H         1.835828        -1.810757         1.583994
 H        -0.617231         0.008887         0.893825
 H        -0.438192         0.996647        -0.502096
 H        -0.376714        -0.861106        -0.650567
 H         4.167241         0.994751        -0.788440
 H         1.943434         2.845930         0.865207
