19
Iteration:  4107
 C         4.518904        -0.335697         1.717812
 C         3.350613        -0.168625         0.859613
 C         2.268580        -1.167213         0.754831
 C         1.427238        -0.057800         0.090886
 C        -0.094075        -0.042649        -0.101958
 O         2.143954         0.107508        -1.204687
 C         3.233591         0.553337        -0.468895
 C         2.476686         0.960501         0.735781
 O         2.285552         1.996041         1.572795
 H         5.043500        -1.250854         1.481388
 H         5.368584         0.464350         1.495044
 H         4.222839        -0.437500         2.754285
 H         2.408803        -2.181510         0.270865
 H         1.765005        -1.442500         1.748984
 H        -0.703242        -0.333356         0.815880
 H        -0.482200         0.965882        -0.390827
 H        -0.282126        -0.941745        -0.760769
 H         4.082580         0.952057        -1.062532
 H         2.383967         2.907236         1.192140
