19
Iteration:  1924charge 0 multiplicity 1
 C         4.560867        -0.507151         1.725657
 C         3.349583        -0.226144         0.902655
 C         2.223336        -1.224569         0.681370
 C         1.486823        -0.117945         0.007195
 C        -0.056578        -0.011345         0.058683
 O         2.212984         0.087003        -1.288323
 C         3.240734         0.660134        -0.423417
 C         2.371508         0.992380         0.750935
 O         2.226917         2.163556         1.562079
 H         5.169331        -1.176842         1.166295
 H         5.144184         0.494770         1.846803
 H         4.409896        -0.894966         2.711220
 H         2.509775        -1.961964        -0.163993
 H         1.714838        -1.683826         1.624305
 H        -0.374219         0.082888         1.060704
 H        -0.414429         0.994230        -0.329367
 H        -0.501601        -0.894810        -0.370964
 H         4.196634         0.819023        -0.846965
 H         1.851035         2.693161         0.973657
