19
Iteration:  2708
 C         4.664111        -0.517312         1.617214
 C         3.365976        -0.182370         0.913921
 C         2.210203        -1.105236         0.841087
 C         1.433087        -0.020678         0.071819
 C        -0.064695         0.015865        -0.088016
 O         2.201204         0.056755        -1.223411
 C         3.312489         0.571757        -0.467342
 C         2.407488         0.995785         0.744763
 O         2.151957         2.047428         1.567948
 H         5.326982        -1.085928         0.970823
 H         5.042407         0.331526         2.082576
 H         4.386155        -1.212996         2.450815
 H         2.348339        -2.108352         0.583381
 H         1.853027        -1.251978         1.821247
 H        -0.672478         0.128926         0.815650
 H        -0.241929         0.895641        -0.703843
 H        -0.390708        -0.900288        -0.683985
 H         4.198476         1.046163        -0.972171
 H         1.416164         2.659156         1.013432
