19
Iteration:  1510
 C         4.699471        -0.419624         1.649546
 C         3.312570        -0.218571         0.906827
 C         2.193427        -1.212512         0.802197
 C         1.406151        -0.085601        -0.017531
 C        -0.020221         0.174822        -0.189686
 O         2.195824        -0.022863        -1.256081
 C         3.196802         0.683163        -0.463560
 C         2.338587         0.944790         0.773483
 O         2.256431         1.952896         1.759805
 H         5.346774        -1.078610         1.197347
 H         5.270667         0.535973         1.505007
 H         4.629855        -0.531318         2.731990
 H         2.471729        -2.166157         0.239323
 H         1.789039        -1.347046         1.837198
 H        -0.586355         0.163296         0.770644
 H        -0.122908         1.138339        -0.729437
 H        -0.550330        -0.584856        -0.816841
 H         4.013839         1.173535        -0.995690
 H         1.836698         2.668317         1.163136
