19
Iteration:  2418
 C         4.558827        -0.367955         1.761060
 C         3.373453        -0.212419         0.894673
 C         2.174315        -1.253651         0.643985
 C         1.356939        -0.120999         0.017761
 C        -0.150751        -0.033162         0.016265
 O         2.234438         0.057649        -1.236439
 C         3.246519         0.670495        -0.436548
 C         2.441823         0.948444         0.774548
 O         2.360729         2.114329         1.519716
 H         5.052602        -1.329086         1.697958
 H         5.475946         0.237073         1.517591
 H         4.329942        -0.248448         2.853046
 H         2.399817        -2.065537        -0.091391
 H         1.772017        -1.680372         1.552595
 H        -0.663351        -0.321274         1.039741
 H        -0.371825         1.031319        -0.262450
 H        -0.480334        -0.541899        -0.899819
 H         4.204309         1.065554        -0.810620
 H         1.608795         2.792433         1.297295
