19
Iteration:  1033charge 0 multiplicity 1
 C         4.614215        -0.428618         1.712580
 C         3.385525        -0.269936         0.821026
 C         2.150438        -1.127352         0.839875
 C         1.420296        -0.022153         0.022560
 C        -0.111285        -0.082051        -0.150059
 O         2.166289         0.166617        -1.267613
 C         3.237905         0.643504        -0.472485
 C         2.463852         0.985068         0.722874
 O         2.299951         1.946905         1.694813
 H         4.957206        -1.554931         1.674478
 H         5.336320         0.343647         1.374665
 H         4.311356        -0.214920         2.805916
 H         2.208207        -2.052035         0.270152
 H         1.624202        -1.380758         1.736361
 H        -0.586134        -0.224905         0.852606
 H        -0.314355         0.924844        -0.420412
 H        -0.444340        -0.830939        -0.859375
 H         4.146431         1.155770        -0.882928
 H         2.231071         2.895061         1.147695
