19
Iteration:  2734charge 0 multiplicity 1
 C         4.697735        -0.536415         1.646319
 C         3.376690        -0.294891         0.906947
 C         2.094292        -1.180822         0.790192
 C         1.480404         0.011527         0.053992
 C        -0.022550        -0.018717        -0.027042
 O         2.198048         0.096628        -1.247861
 C         3.299592         0.645406        -0.475171
 C         2.478284         1.000603         0.769123
 O         2.046364         2.094846         1.508216
 H         5.512750        -0.982150         1.096286
 H         4.919527         0.427896         2.303129
 H         4.512653        -1.068208         2.560476
 H         2.162205        -2.209360         0.410645
 H         1.768443        -1.465070         1.812978
 H        -0.432656         0.183175         1.032265
 H        -0.449219         0.843537        -0.609069
 H        -0.375196        -1.039827        -0.283896
 H         4.233537         1.067156        -0.881370
 H         2.237523         2.921540         0.904333
