19
Iteration:  3001charge 0 multiplicity 1
 C         4.686547        -0.285069         1.643510
 C         3.310299        -0.270762         0.922504
 C         2.131910        -1.254663         0.740285
 C         1.413926        -0.102641         0.058876
 C        -0.006869         0.048476        -0.192193
 O         2.167185        -0.005690        -1.219892
 C         3.175009         0.585561        -0.389903
 C         2.358126         0.906636         0.852968
 O         2.353810         2.123962         1.609587
 H         5.309479        -1.073452         1.249890
 H         5.211062         0.576592         1.239911
 H         4.582088        -0.295274         2.776494
 H         2.450467        -1.974026         0.018128
 H         1.688589        -1.611626         1.642521
 H        -0.488596         0.077971         0.781254
 H        -0.154173         0.957338        -0.782704
 H        -0.565114        -0.811226        -0.723578
 H         3.961198         1.174803        -0.778026
 H         1.702103         2.809475         1.206213
