19
Iteration:  3405
 C         4.614138        -0.499319         1.651092
 C         3.434951        -0.136320         0.899379
 C         2.204956        -1.179934         0.805315
 C         1.416013        -0.033273         0.131560
 C        -0.116517         0.020850        -0.058642
 O         2.211432         0.049120        -1.256714
 C         3.303545         0.637144        -0.502732
 C         2.480311         1.004226         0.691805
 O         2.126989         1.998605         1.607539
 H         5.131411        -1.439863         1.498102
 H         5.432580         0.379232         1.686075
 H         4.228760        -0.596698         2.708295
 H         2.260266        -2.245970         0.303297
 H         2.094604        -1.252708         1.925072
 H        -0.779476         0.162856         0.775061
 H        -0.304240         0.939224        -0.548164
 H        -0.417426        -0.755639        -0.787009
 H         4.090052         1.008420        -1.087552
 H         1.659763         2.537108         0.991655
