19
Iteration:  4067charge 0 multiplicity 1
 C         4.722527        -0.338096         1.578226
 C         3.347075        -0.240196         0.914843
 C         2.175805        -1.122559         0.832747
 C         1.376208        -0.054744         0.041616
 C        -0.129904        -0.041236        -0.221332
 O         2.183788         0.009990        -1.186055
 C         3.253322         0.590399        -0.390520
 C         2.407849         0.909946         0.819128
 O         2.292853         2.097727         1.628732
 H         5.261355        -1.235818         1.105140
 H         5.351610         0.464270         1.495839
 H         4.594267        -0.503657         2.707536
 H         2.271417        -2.077975         0.363244
 H         1.565938        -1.360387         1.752690
 H        -0.827281        -0.211738         0.621799
 H        -0.518988         0.913455        -0.594878
 H        -0.402647        -0.678401        -1.030706
 H         4.059812         1.089865        -0.854524
 H         2.045472         2.693155         0.953890
