19
Iteration:  3127charge 0 multiplicity 1
 C         4.608276        -0.424891         1.691002
 C         3.334973        -0.267216         0.922916
 C         2.233667        -1.283884         0.665421
 C         1.453978        -0.094591         0.136889
 C        -0.048802         0.027362        -0.047229
 O         2.124709         0.181477        -1.183750
 C         3.279168         0.652669        -0.367400
 C         2.423788         0.857850         0.814573
 O         2.223425         2.105454         1.409574
 H         5.342434        -1.224299         1.247578
 H         4.985011         0.628727         1.868162
 H         4.410518        -0.717507         2.749512
 H         2.505249        -2.131225        -0.053138
 H         1.842646        -1.622965         1.658176
 H        -0.530928         0.242022         0.898365
 H        -0.370442         0.896485        -0.658308
 H        -0.479375        -0.822135        -0.429541
 H         4.168560         1.090903        -0.756425
 H         1.992210         2.722813         0.560531
