19
Iteration:  1052
 C         4.535687        -0.419824         1.785635
 C         3.355310        -0.261598         0.884397
 C         2.139611        -1.236555         0.636435
 C         1.415938         0.047552         0.029796
 C        -0.083885        -0.070389        -0.033758
 O         2.148694         0.163502        -1.247052
 C         3.303427         0.669311        -0.508683
 C         2.500698         0.973682         0.749075
 O         2.335364         2.000418         1.634478
 H         4.923307        -1.460792         1.650778
 H         5.313817         0.227758         1.612942
 H         4.313290        -0.310148         2.872313
 H         2.141497        -2.252064         0.079211
 H         1.883905        -1.246578         1.688128
 H        -0.461189        -0.444755         0.977891
 H        -0.788665         0.728364        -0.390297
 H        -0.212840        -0.905030        -0.756635
 H         4.201450         1.104089        -1.022593
 H         1.802976         2.775722         1.064378
