19
Iteration:   348charge 0 multiplicity 1
 C         4.664432        -0.608415         1.714704
 C         3.377490        -0.186348         0.975947
 C         2.183905        -1.258945         0.766086
 C         1.503041        -0.045692         0.023965
 C         0.035789         0.108066         0.018377
 O         2.225195         0.082462        -1.230425
 C         3.214974         0.626760        -0.419741
 C         2.446424         0.996359         0.738348
 O         1.959104         2.125117         1.390792
 H         5.096660        -1.353768         1.040308
 H         5.456885         0.223411         1.646737
 H         4.482040        -1.108238         2.684273
 H         2.414422        -2.145164         0.266950
 H         1.601391        -1.378725         1.688993
 H        -0.277549         0.175319         1.063250
 H        -0.193550         1.056354        -0.534965
 H        -0.522888        -0.648315        -0.578247
 H         4.091759         1.020929        -0.955830
 H         2.637102         2.520590         1.784409
