19
Iteration:   962charge 0 multiplicity 1
 C         4.658495        -0.376324         1.569191
 C         3.330142        -0.372110         0.921445
 C         2.160191        -1.234858         0.809253
 C         1.431306        -0.045637         0.006612
 C        -0.042142         0.103558        -0.193799
 O         2.174942         0.145401        -1.191392
 C         3.260845         0.566531        -0.362692
 C         2.462141         0.951184         0.833026
 O         2.204591         2.018249         1.580758
 H         5.391873        -0.906036         1.030610
 H         4.936020         0.661959         1.833862
 H         4.506369        -0.900082         2.482991
 H         2.335533        -2.215046         0.273616
 H         1.758190        -1.470886         1.845676
 H        -0.346700         0.176107         0.845616
 H        -0.336387         1.104746        -0.647883
 H        -0.606994        -0.762276        -0.634565
 H         4.033177         1.103242        -0.870254
 H         1.983240         2.737926         1.107364
