19
Iteration:  3921
 C         4.645418        -0.362688         1.655370
 C         3.363340        -0.268350         0.950165
 C         2.184900        -1.218145         0.740065
 C         1.428767        -0.103268        -0.028977
 C        -0.000600        -0.002608        -0.124792
 O         2.094007         0.071445        -1.222473
 C         3.237900         0.587353        -0.332168
 C         2.346834         0.946767         0.767880
 O         2.315055         2.113754         1.559435
 H         5.231657        -1.203200         1.311975
 H         5.270617         0.549123         1.279680
 H         4.554755        -0.351370         2.767396
 H         2.319659        -2.214670         0.194735
 H         1.732825        -1.529498         1.711270
 H        -0.427173        -0.061210         0.852213
 H        -0.345597         0.962930        -0.509229
 H        -0.396140        -0.908500        -0.721493
 H         4.029807         1.211283        -0.566580
 H         1.863646         2.890977         1.248542
