19
Iteration:  1115charge 0 multiplicity 1
 C         4.662582        -0.449004         1.662740
 C         3.345467        -0.271625         0.874327
 C         2.190575        -1.266971         0.663294
 C         1.407845        -0.028750         0.057499
 C        -0.048379         0.075252        -0.088173
 O         2.091488         0.114928        -1.224995
 C         3.307153         0.608534        -0.347743
 C         2.441262         0.921609         0.784062
 O         2.208599         2.025700         1.588675
 H         5.577575        -0.858337         1.265250
 H         5.045872         0.649764         2.045318
 H         4.289470        -0.845991         2.607676
 H         2.259452        -2.166833         0.028541
 H         1.884031        -1.409608         1.786359
 H        -0.671937         0.089479         0.811504
 H        -0.256339         0.981287        -0.728041
 H        -0.393491        -0.768722        -0.717440
 H         4.123027         1.299703        -0.676014
 H         2.515224         2.963648         0.977876
