19
Iteration:   593
 C         4.529425        -0.493232         1.727029
 C         3.328286        -0.197380         0.866281
 C         2.232208        -1.108886         0.723202
 C         1.450872        -0.071108         0.056193
 C         0.022505         0.019190         0.054122
 O         2.207395         0.031892        -1.306153
 C         3.282825         0.626097        -0.468262
 C         2.335186         0.939906         0.716649
 O         2.212358         2.056268         1.597709
 H         5.242439        -1.205877         1.224328
 H         4.948760         0.406942         2.044825
 H         4.123263        -0.950703         2.664486
 H         2.274579        -2.069029         0.195148
 H         1.722204        -1.243608         1.609550
 H        -0.520892        -0.134404         0.972756
 H        -0.141270         1.051918        -0.329191
 H        -0.212562        -0.689179        -0.742387
 H         4.035998         1.244352        -0.927072
 H         2.492745         2.860851         1.008747
