19
Iteration:  1649charge 0 multiplicity 1
 C         4.622360        -0.314723         1.610020
 C         3.320624        -0.263570         0.869530
 C         2.090834        -1.120109         0.780810
 C         1.392438        -0.018391        -0.043698
 C        -0.111980        -0.090719        -0.194026
 O         2.190248         0.095035        -1.209712
 C         3.324029         0.621315        -0.418725
 C         2.452113         0.990326         0.781660
 O         2.327764         1.928883         1.778492
 H         4.993747        -1.336475         1.255288
 H         5.392251         0.345078         1.026719
 H         4.641707        -0.106784         2.646395
 H         2.211495        -2.087417         0.402415
 H         1.492089        -1.042939         1.742245
 H        -0.434798        -0.278792         0.839554
 H        -0.414873         0.875635        -0.544990
 H        -0.406186        -0.827140        -0.936935
 H         4.172505         0.993633        -0.927620
 H         1.840673         2.689195         1.269073
