19
Iteration:   891charge 0 multiplicity 1
 C         4.539731        -0.491610         1.771507
 C         3.366715        -0.284606         0.867161
 C         2.209984        -1.300181         0.681150
 C         1.449344        -0.094760         0.044597
 C        -0.038293        -0.009413        -0.033250
 O         2.122819         0.227741        -1.245414
 C         3.253352         0.618066        -0.437169
 C         2.480671         1.015820         0.762402
 O         2.290161         2.111562         1.529094
 H         5.184947        -1.357044         1.476666
 H         5.064120         0.427898         1.839391
 H         4.135051        -0.683238         2.794781
 H         2.395268        -2.098029        -0.066251
 H         1.804096        -1.756955         1.599816
 H        -0.424118        -0.147451         1.015188
 H        -0.484698         0.886984        -0.392539
 H        -0.355449        -0.879283        -0.575629
 H         4.065945         1.297896        -0.635034
 H         1.731973         2.707347         1.014043
