19
Iteration:  1267
 C         4.543611        -0.432259         1.758823
 C         3.344731        -0.165939         0.917895
 C         2.212291        -1.220695         0.565984
 C         1.408845        -0.033496         0.002749
 C        -0.059519        -0.035480        -0.051915
 O         2.152547         0.179087        -1.240987
 C         3.288278         0.596494        -0.428427
 C         2.406097         0.926549         0.761845
 O         2.324404         2.006505         1.669935
 H         4.828697        -1.490534         1.790163
 H         5.399806         0.280455         1.380581
 H         4.534845        -0.183533         2.808674
 H         2.411739        -2.083221        -0.019402
 H         1.720283        -1.451025         1.552041
 H        -0.613906        -0.139454         0.853598
 H        -0.480983         0.921918        -0.387963
 H        -0.372391        -0.822469        -0.745943
 H         4.051892         1.009925        -1.074662
 H         2.017926         2.628954         1.149884
