19
Iteration:  2603charge 0 multiplicity 1
 C         4.497260        -0.374453         1.826145
 C         3.365006        -0.226995         0.813398
 C         2.244792        -1.228475         0.702675
 C         1.417671        -0.092667         0.040466
 C        -0.143914        -0.011394        -0.022683
 O         2.188568         0.019057        -1.233199
 C         3.267407         0.696486        -0.477507
 C         2.412810         1.000122         0.663881
 O         2.352228         2.052125         1.615940
 H         4.794612        -1.396010         1.647943
 H         5.331417         0.251010         1.338364
 H         4.078375        -0.246014         2.788751
 H         2.441647        -2.154253         0.067893
 H         1.915961        -1.286469         1.751145
 H        -0.434672        -0.345449         0.990629
 H        -0.647078         0.894508        -0.290331
 H        -0.410693        -0.778693        -0.696988
 H         4.153132         1.193399        -0.992211
 H         2.254378         2.836333         1.203841
