19
Iteration:  4225
 C         4.665098        -0.418513         1.572606
 C         3.345267        -0.177194         0.945789
 C         2.202748        -1.144034         0.881638
 C         1.408177        -0.120070         0.091898
 C        -0.087156         0.003669        -0.201385
 O         2.200075         0.080922        -1.227886
 C         3.290212         0.574305        -0.395257
 C         2.375337         0.955549         0.796329
 O         2.155569         2.064492         1.592237
 H         5.265511        -0.951989         0.860334
 H         5.179444         0.561332         1.395901
 H         4.723584        -0.798167         2.542972
 H         2.349428        -2.108659         0.351114
 H         1.688510        -1.494769         1.733779
 H        -0.554629         0.018526         0.816384
 H        -0.126248         1.022398        -0.614971
 H        -0.500841        -0.841440        -0.840322
 H         4.227102         0.665553        -0.909464
 H         2.512047         2.776755         1.034496
