19
Iteration:  3772charge 0 multiplicity 1
 C         4.537737        -0.397519         1.710199
 C         3.402936        -0.143424         0.866303
 C         2.247444        -1.078617         0.699514
 C         1.423075        -0.042612         0.017838
 C        -0.029863        -0.017864         0.048665
 O         2.178015         0.051384        -1.258005
 C         3.268909         0.532392        -0.463465
 C         2.402957         0.988758         0.688494
 O         2.233209         1.952849         1.607383
 H         5.046681        -1.387169         1.490685
 H         5.290321         0.277568         1.698322
 H         4.126926        -0.536691         2.757476
 H         2.402945        -2.072379         0.201253
 H         1.748008        -1.195645         1.748246
 H        -0.575092        -0.046846         1.052540
 H        -0.346885         0.842425        -0.592704
 H        -0.540465        -0.842642        -0.381127
 H         3.956092         1.121923        -0.973700
 H         2.135516         2.935236         1.085343
