19
Iteration:   362
 C         4.616341        -0.583182         1.703854
 C         3.328555        -0.276461         1.065715
 C         2.213803        -1.158069         0.853699
 C         1.494501        -0.119962         0.007401
 C         0.038395         0.076188         0.024464
 O         2.144134         0.209560        -1.267889
 C         3.306037         0.701402        -0.555803
 C         2.514248         0.948762         0.732086
 O         1.979148         2.037353         1.349476
 H         5.174997        -1.480956         1.249520
 H         5.271761         0.141999         2.143687
 H         4.249496        -0.983058         2.716600
 H         2.381020        -2.071780         0.249312
 H         1.689340        -1.457199         1.704166
 H        -0.232538         0.022558         1.095411
 H        -0.269518         1.071993        -0.240112
 H        -0.546308        -0.760034        -0.361573
 H         4.248244         0.964215        -0.999549
 H         2.765614         2.803920         1.635331
