19
Iteration:  3543
 C         4.638726        -0.394269         1.605643
 C         3.310956        -0.246934         0.854509
 C         2.137763        -1.152514         0.867541
 C         1.474702         0.005338         0.079695
 C        -0.012421        -0.019927        -0.122959
 O         2.179594         0.027929        -1.224274
 C         3.269962         0.598430        -0.514289
 C         2.473669         1.043587         0.712291
 O         2.194660         2.006135         1.690336
 H         5.286278        -1.285651         1.250004
 H         5.263255         0.450590         1.481908
 H         4.415310        -0.647966         2.656432
 H         2.209349        -2.097002         0.409113
 H         1.612045        -1.184309         1.811550
 H        -0.667361         0.060928         0.794499
 H        -0.467609         0.719283        -0.819055
 H        -0.167744        -0.987090        -0.578151
 H         4.202899         0.908424        -1.024478
 H         1.665877         2.773265         1.266592
