19
Iteration:  3709
 C         4.750595        -0.331271         1.585160
 C         3.343386        -0.246065         0.986906
 C         2.235938        -1.345756         0.813358
 C         1.352896        -0.070617         0.065869
 C        -0.154346         0.044653        -0.240159
 O         2.135266         0.096747        -1.153557
 C         3.178973         0.610955        -0.336179
 C         2.387291         0.910697         0.814243
 O         2.346733         2.101648         1.513898
 H         5.279216        -1.214942         1.151359
 H         5.352246         0.634803         1.487733
 H         4.576439        -0.573450         2.628121
 H         2.466307        -2.248774         0.222725
 H         1.774223        -1.678267         1.746784
 H        -0.754716         0.059232         0.712010
 H        -0.316917         1.029881        -0.674517
 H        -0.230188        -0.741511        -0.909633
 H         3.969279         1.124532        -0.772033
 H         1.892941         2.821951         0.870159
