19
Iteration:   544charge 0 multiplicity 1
 C         4.651611        -0.453510         1.770283
 C         3.314578        -0.309200         0.940188
 C         2.197165        -1.270020         0.607096
 C         1.470117        -0.015170         0.037655
 C        -0.004444         0.032550        -0.009498
 O         2.076226         0.194733        -1.246008
 C         3.264700         0.557210        -0.291493
 C         2.468133         0.924330         0.849666
 O         2.217247         2.091475         1.385102
 H         5.105672        -1.256440         1.305824
 H         5.183144         0.549059         1.807259
 H         4.496702        -0.585707         2.803854
 H         2.280777        -1.951313        -0.279124
 H         1.770360        -1.880577         1.533424
 H        -0.480243         0.089417         0.985066
 H        -0.275313         0.995579        -0.450540
 H        -0.224742        -0.879633        -0.580845
 H         4.166772         1.152281        -0.418240
 H         1.795134         2.854838         0.709613
