19
Iteration:  4304
 C         4.571236        -0.392558         1.800689
 C         3.387151        -0.228686         0.869676
 C         2.210144        -1.126068         0.681301
 C         1.416374        -0.071015         0.072126
 C        -0.018830        -0.106166        -0.036715
 O         2.111269         0.070992        -1.271211
 C         3.189500         0.652673        -0.482781
 C         2.445211         0.956339         0.693300
 O         2.316219         2.033874         1.600022
 H         5.033436        -1.318401         1.722363
 H         5.298727         0.500192         1.934733
 H         4.097482        -0.285565         2.747246
 H         2.401188        -2.058107         0.137681
 H         1.690516        -1.265220         1.650885
 H        -0.428250        -0.320712         1.010352
 H        -0.444371         0.915244        -0.276769
 H        -0.389022        -0.720556        -0.905477
 H         3.998199         1.064848        -1.092833
 H         2.352470         2.852651         1.126558
