19
Iteration:  1420charge 0 multiplicity 1
 C         4.452354        -0.522066         1.724689
 C         3.346138        -0.163211         0.855709
 C         2.165566        -1.171440         0.677689
 C         1.420857        -0.042078         0.061991
 C        -0.049026        -0.115580        -0.037881
 O         2.219850         0.139908        -1.255175
 C         3.278318         0.702246        -0.505133
 C         2.420822         0.969787         0.776911
 O         2.358252         2.062005         1.655610
 H         4.861431        -1.462562         1.474288
 H         5.328599         0.161295         1.713347
 H         4.048685        -0.572368         2.700612
 H         2.455548        -1.928601        -0.050399
 H         1.827304        -1.748736         1.608398
 H        -0.464285        -0.420198         0.969074
 H        -0.456280         0.849716        -0.390972
 H        -0.413007        -0.889497        -0.759836
 H         4.105092         1.274888        -0.921265
 H         1.901696         2.880065         1.094361
