19
Iteration:  1371charge 0 multiplicity 1
 C         4.594219        -0.433402         1.642085
 C         3.360651        -0.315736         0.920690
 C         2.177069        -1.275041         0.698264
 C         1.439954        -0.063985         0.078045
 C        -0.030839         0.056257        -0.113182
 O         2.174020         0.229521        -1.203401
 C         3.219654         0.646521        -0.369238
 C         2.405796         0.907003         0.794244
 O         2.252138         2.033037         1.559477
 H         5.418300        -0.757462         0.917634
 H         5.017356         0.514960         1.968779
 H         4.488910        -1.084814         2.566075
 H         2.237401        -2.316776         0.296226
 H         1.759943        -1.412878         1.652443
 H        -0.570983        -0.118017         0.803990
 H        -0.233667         0.980581        -0.672324
 H        -0.383563        -0.751456        -0.764933
 H         4.257673         0.974743        -0.653044
 H         2.048629         2.773571         0.871845
