19
Iteration:  4134
 C         4.623143        -0.300912         1.803185
 C         3.355123        -0.266956         0.860926
 C         2.130477        -1.284910         0.649460
 C         1.455778        -0.123177         0.036111
 C        -0.073625        -0.035697         0.018683
 O         2.179892         0.104553        -1.278235
 C         3.256811         0.628274        -0.452031
 C         2.449981         0.921005         0.755824
 O         2.314909         2.137523         1.558605
 H         5.255600        -1.206248         1.570754
 H         5.291297         0.433589         1.735023
 H         4.234728        -0.399998         2.848616
 H         2.200564        -2.167338         0.050358
 H         1.450834        -1.623301         1.430583
 H        -0.511962        -0.062461         0.986672
 H        -0.504419         0.882835        -0.392553
 H        -0.549688        -0.859441        -0.474838
 H         4.054404         1.153325        -1.015112
 H         1.657435         2.785815         1.195662
