19
Iteration:  2296charge 0 multiplicity 1
 C         4.691263        -0.463182         1.763202
 C         3.427028        -0.269362         0.846908
 C         2.172513        -1.192484         0.741120
 C         1.426215        -0.095186         0.090998
 C        -0.043838         0.038091        -0.169682
 O         2.088142         0.130974        -1.203697
 C         3.198568         0.588888        -0.403420
 C         2.425637         0.951363         0.828471
 O         2.249511         2.073227         1.528317
 H         5.399309        -1.088239         1.275671
 H         5.370786         0.447707         1.725083
 H         4.564562        -0.664179         2.759899
 H         2.382966        -2.110102         0.202581
 H         1.953388        -1.384368         1.772366
 H        -0.682068         0.144034         0.758739
 H        -0.175795         1.024771        -0.715687
 H        -0.479448        -0.829198        -0.702332
 H         3.937320         1.051746        -1.052098
 H         1.614212         2.701510         0.905430
