19
Iteration:  3281
 C         4.571036        -0.417433         1.788080
 C         3.403190        -0.162851         0.883983
 C         2.153639        -1.160318         0.692665
 C         1.423326        -0.017253         0.062465
 C        -0.076406        -0.112898        -0.026925
 O         2.190523         0.080192        -1.268244
 C         3.206131         0.587883        -0.468444
 C         2.383291         0.959314         0.750819
 O         2.360988         2.065719         1.548378
 H         5.445864        -1.135303         1.483381
 H         5.145382         0.507663         1.920453
 H         4.185999        -0.839203         2.707373
 H         2.239127        -2.126011         0.075392
 H         1.669339        -1.407922         1.679237
 H        -0.481051        -0.594317         0.895184
 H        -0.608019         0.897071        -0.134116
 H        -0.427848        -0.700426        -0.870008
 H         4.015646         1.251635        -0.927971
 H         2.084724         2.955891         0.985049
