19
Iteration:   529charge 0 multiplicity 1
 C         4.567079        -0.439945         1.656416
 C         3.326635        -0.290339         0.950861
 C         2.183337        -1.302522         0.686366
 C         1.458481        -0.059618         0.072746
 C        -0.026325         0.043964        -0.091735
 O         2.206835         0.177019        -1.160515
 C         3.269455         0.626857        -0.375973
 C         2.378614         0.900270         0.820540
 O         2.255691         2.125344         1.486414
 H         5.202966        -1.359701         1.305018
 H         5.273250         0.416772         1.482405
 H         4.375662        -0.571022         2.780262
 H         2.482356        -2.126739         0.021009
 H         1.709175        -1.687084         1.543053
 H        -0.454244         0.011392         0.904563
 H        -0.374426         0.958260        -0.638822
 H        -0.467064        -0.831927        -0.585065
 H         4.037007         1.136471        -0.952998
 H         1.788007         2.735980         0.792235
