19
Iteration:  3505charge 0 multiplicity 1
 C         4.582431        -0.416594         1.670886
 C         3.344471        -0.178025         0.944078
 C         2.206758        -1.238127         0.829610
 C         1.370599        -0.137682         0.051601
 C        -0.134049        -0.025249        -0.153866
 O         2.172186         0.046733        -1.215203
 C         3.183857         0.748666        -0.496929
 C         2.470558         0.986870         0.680095
 O         2.368201         2.048921         1.628847
 H         5.218483        -1.122637         1.232289
 H         5.013403         0.620894         1.950915
 H         4.441674        -0.627067         2.757421
 H         2.527986        -2.215681         0.273198
 H         1.822840        -1.488167         1.876921
 H        -0.677342        -0.184218         0.761914
 H        -0.484810         0.865519        -0.627016
 H        -0.266401        -0.869166        -0.878527
 H         4.177368         1.066694        -0.921500
 H         2.144220         2.805017         1.141929
