19
Iteration:  2250
 C         4.540386        -0.402371         1.734283
 C         3.299569        -0.205809         0.939150
 C         2.172512        -1.139213         0.692129
 C         1.482764        -0.104703        -0.071776
 C        -0.053951        -0.083355         0.042262
 O         2.173271         0.101235        -1.319152
 C         3.316861         0.542234        -0.478675
 C         2.386738         1.006382         0.699387
 O         2.294848         2.067647         1.655900
 H         5.106978        -1.335037         1.643479
 H         5.433578         0.323383         1.621993
 H         4.250857        -0.212033         2.720503
 H         2.315984        -2.074997         0.061385
 H         1.531173        -1.385205         1.597758
 H        -0.421124        -0.365281         1.007938
 H        -0.380496         0.979362        -0.055862
 H        -0.698211        -0.702641        -0.655810
 H         4.262223         0.935220        -0.745114
 H         2.230631         3.035716         1.219090
