19
Iteration:  1786
 C         4.604068        -0.505528         1.717542
 C         3.425330        -0.214924         0.860107
 C         2.233746        -1.249096         0.717681
 C         1.379371        -0.074133         0.107769
 C        -0.037491        -0.072468        -0.117475
 O         2.097077         0.155171        -1.196566
 C         3.248064         0.710253        -0.422313
 C         2.447718         1.010228         0.772652
 O         2.276910         2.092886         1.546283
 H         5.360124        -1.057681         1.143013
 H         5.067397         0.263242         2.251017
 H         4.199950        -1.185676         2.586973
 H         2.104519        -2.223216         0.153124
 H         2.001283        -1.316739         1.751815
 H        -0.633413        -0.081664         0.854156
 H        -0.469034         0.811966        -0.727567
 H        -0.280081        -0.933526        -0.814585
 H         4.043890         1.064525        -0.998773
 H         1.873136         2.705750         1.066498
