19
Iteration:  3160
 C         4.684597        -0.437004         1.629276
 C         3.332712        -0.284120         0.984140
 C         2.160758        -1.241533         0.749924
 C         1.414732        -0.101201         0.005543
 C        -0.076589         0.045023        -0.078229
 O         2.197906         0.048472        -1.238770
 C         3.266102         0.718277        -0.457736
 C         2.464562         0.988211         0.798936
 O         2.119137         2.064370         1.559573
 H         5.605309        -1.051490         1.241290
 H         5.208595         0.554196         1.562077
 H         4.648352        -0.571196         2.719390
 H         2.180127        -2.287254         0.274490
 H         1.630177        -1.417386         1.720717
 H        -0.380220         0.282744         0.923199
 H        -0.382399         0.756576        -0.870867
 H        -0.511339        -0.863913        -0.235702
 H         4.197782         0.972878        -0.842834
 H         2.617915         2.825282         1.281875
