19
Iteration:  2443charge 0 multiplicity 1
 C         4.517694        -0.375516         1.699190
 C         3.302447        -0.233913         0.952031
 C         2.200960        -1.244718         0.760609
 C         1.420715        -0.005837        -0.041286
 C        -0.011255        -0.062021         0.002519
 O         2.178547         0.117117        -1.270814
 C         3.236139         0.545074        -0.463775
 C         2.446460         0.987383         0.747868
 O         2.270134         2.062033         1.566712
 H         5.106770        -1.336926         1.610663
 H         5.236557         0.313416         1.362652
 H         4.441047        -0.277052         2.846927
 H         2.506879        -2.094338         0.216286
 H         1.782150        -1.590981         1.691549
 H        -0.288280        -0.440585         1.022365
 H        -0.432564         0.982694        -0.127251
 H        -0.408462        -0.576451        -0.949865
 H         4.051238         1.031826        -0.945453
 H         2.322787         3.056250         1.139566
