19
Iteration:  1425charge 0 multiplicity 1
 C         4.449795        -0.502108         1.684576
 C         3.320612        -0.177420         0.862664
 C         2.190574        -1.185867         0.709001
 C         1.452706        -0.048061         0.028945
 C        -0.095268        -0.123258        -0.033957
 O         2.218901         0.155685        -1.257669
 C         3.283233         0.699571        -0.462052
 C         2.451072         0.974735         0.739313
 O         2.349959         2.063295         1.668075
 H         4.808225        -1.615652         1.597995
 H         5.238660         0.292066         1.559072
 H         3.998780        -0.528430         2.781727
 H         2.408463        -2.025537        -0.015763
 H         1.709971        -1.609771         1.542999
 H        -0.377732        -0.358360         0.962402
 H        -0.520263         0.827910        -0.335613
 H        -0.313421        -0.886895        -0.761043
 H         4.121627         1.280319        -0.891645
 H         2.056328         2.736528         1.142911
