19
Iteration:   711charge 0 multiplicity 1
 C         4.503058        -0.521695         1.760605
 C         3.384956        -0.248776         0.863377
 C         2.157758        -1.176083         0.746371
 C         1.482764        -0.043024         0.089674
 C        -0.008309        -0.061760        -0.069912
 O         2.169552         0.162358        -1.206067
 C         3.218753         0.721601        -0.570947
 C         2.546368         0.932197         0.735317
 O         2.209475         2.035690         1.569675
 H         5.135289        -1.345040         1.412819
 H         5.230218         0.431451         1.929642
 H         4.148543        -0.678276         2.814471
 H         2.109974        -2.205817         0.181525
 H         1.759284        -1.299120         1.762600
 H        -0.325896        -0.107784         0.998216
 H        -0.436719         0.907414        -0.389488
 H        -0.464266        -0.937433        -0.578359
 H         4.103004         1.178413        -0.971249
 H         2.112521         2.919294         0.855926
