19
Iteration:  4083
 C         4.667421        -0.404455         1.669609
 C         3.336626        -0.222409         0.844166
 C         2.129798        -1.202161         0.867169
 C         1.426736        -0.119162         0.036065
 C        -0.016117        -0.036583        -0.208839
 O         2.151521         0.022005        -1.243589
 C         3.156592         0.659937        -0.425638
 C         2.420776         1.024978         0.765473
 O         2.284672         2.070337         1.645765
 H         5.363368        -1.213252         1.435095
 H         5.320254         0.574687         1.362371
 H         4.499724        -0.459464         2.728300
 H         2.165754        -2.272358         0.518320
 H         1.904750        -1.259934         1.926601
 H        -0.560921        -0.340765         0.709426
 H        -0.358484         0.991696        -0.411788
 H        -0.337839        -0.845810        -0.945478
 H         3.956373         1.153591        -1.060988
 H         2.460031         3.048587         1.219246
