19
Iteration:  2365
 C         4.652962        -0.416641         1.654568
 C         3.344201        -0.231194         0.909058
 C         2.161233        -1.204725         0.845568
 C         1.360981        -0.063786         0.064851
 C        -0.120080         0.005007        -0.137222
 O         2.236756         0.062327        -1.263773
 C         3.262984         0.616604        -0.510255
 C         2.456549         0.972164         0.709199
 O         2.223926         2.048233         1.654224
 H         5.318781        -1.034855         1.083102
 H         5.128848         0.526503         1.651702
 H         4.439748        -0.624194         2.732100
 H         2.219241        -2.082214         0.303013
 H         1.744112        -1.295026         1.803160
 H        -0.561232         0.020510         0.919464
 H        -0.390311         0.915264        -0.689726
 H        -0.405445        -0.989690        -0.529561
 H         4.226856         1.032273        -0.836628
 H         2.339456         2.889904         1.376438
