19
Iteration:  1058
 C         4.528114        -0.425782         1.819963
 C         3.341988        -0.242496         0.850715
 C         2.168299        -1.209988         0.603783
 C         1.421067         0.046523         0.040962
 C        -0.057598        -0.106755        -0.031542
 O         2.172524         0.191813        -1.227844
 C         3.248783         0.611556        -0.498947
 C         2.465358         0.959065         0.737521
 O         2.351046         2.025782         1.622846
 H         4.829997        -1.445156         1.592831
 H         5.360360         0.356212         1.550435
 H         4.303542        -0.398926         2.884392
 H         2.090741        -2.128051         0.065309
 H         1.823942        -1.448283         1.676031
 H        -0.332025        -0.348929         0.967644
 H        -0.520017         0.868519        -0.270799
 H        -0.346242        -0.925066        -0.709036
 H         4.134723         0.976614        -0.944829
 H         1.750383         2.692425         1.087476
