19
Iteration:  2115
 C         4.647796        -0.500164         1.716083
 C         3.369910        -0.222286         0.883678
 C         2.190399        -1.216296         0.766653
 C         1.434292        -0.068699         0.058155
 C        -0.101520         0.020543        -0.049948
 O         2.152215         0.111979        -1.142422
 C         3.263350         0.670158        -0.454589
 C         2.415287         0.959548         0.738684
 O         2.255001         2.060544         1.481498
 H         5.321892        -1.176802         1.153854
 H         5.197294         0.371851         1.847537
 H         4.266245        -0.903777         2.668166
 H         2.496116        -2.116362         0.109953
 H         1.931407        -1.651630         1.755725
 H        -0.667805         0.212211         0.864394
 H        -0.266944         0.833765        -0.717515
 H        -0.395669        -0.769945        -0.686595
 H         4.109518         1.132538        -0.855041
 H         1.716938         2.855665         1.022989
