19
Iteration:  1573
 C         4.599440        -0.503931         1.734778
 C         3.327975        -0.220597         0.976056
 C         2.213551        -1.251377         0.608027
 C         1.405213        -0.145429         0.006259
 C        -0.125060        -0.045474         0.017789
 O         2.179174         0.149062        -1.240825
 C         3.274525         0.723201        -0.414861
 C         2.428573         0.971381         0.780763
 O         2.311564         2.112643         1.518304
 H         5.355324        -1.029645         1.079499
 H         4.827439         0.468047         2.287962
 H         4.384614        -1.181333         2.530820
 H         2.416060        -2.053133        -0.045634
 H         1.686569        -1.628409         1.560567
 H        -0.606076         0.027374         1.043328
 H        -0.287655         0.941220        -0.445036
 H        -0.408635        -0.852315        -0.695264
 H         4.129273         1.298659        -0.769694
 H         2.021881         2.752141         0.997739
