19
Iteration:  1651
 C         4.624967        -0.319557         1.607340
 C         3.319120        -0.249795         0.868399
 C         2.090110        -1.114257         0.779127
 C         1.383655        -0.025432        -0.038332
 C        -0.104601        -0.087760        -0.195507
 O         2.207272         0.090417        -1.208500
 C         3.303652         0.618225        -0.430142
 C         2.457976         0.976431         0.771125
 O         2.326415         1.933109         1.789866
 H         5.014902        -1.284536         1.303157
 H         5.353163         0.319060         0.987802
 H         4.663003        -0.120248         2.673042
 H         2.160664        -2.127419         0.412835
 H         1.536265        -1.084767         1.740112
 H        -0.425614        -0.291348         0.838911
 H        -0.346422         0.936887        -0.561230
 H        -0.481137        -0.833493        -0.939152
 H         4.192256         0.982724        -0.935436
 H         1.757873         2.808159         1.333050
