19
Iteration:  3358
 C         4.596379        -0.295838         1.550452
 C         3.289306        -0.306091         0.940863
 C         2.135582        -1.297833         0.803751
 C         1.445857        -0.163794         0.060185
 C        -0.079232         0.045749        -0.118851
 O         2.265960         0.076944        -1.246642
 C         3.265554         0.608131        -0.359667
 C         2.415039         0.960876         0.776949
 O         2.254183         2.124198         1.622531
 H         5.173734        -1.158174         1.038155
 H         5.083349         0.641230         1.315715
 H         4.710137        -0.531198         2.566645
 H         2.472611        -2.055726         0.019609
 H         1.683425        -1.637828         1.765709
 H        -0.511577         0.522611         0.829880
 H        -0.322715         0.935802        -0.845216
 H        -0.576297        -0.868590        -0.515045
 H         4.280111         0.929805        -0.699500
 H         1.723344         2.646882         1.163151
