19
Iteration:  3350charge 0 multiplicity 1
 C         4.612802        -0.303995         1.542339
 C         3.265742        -0.250585         0.988573
 C         2.184033        -1.275697         0.742494
 C         1.382939        -0.087356         0.036657
 C        -0.086244         0.081645        -0.122444
 O         2.287877         0.061162        -1.172457
 C         3.246186         0.578815        -0.350780
 C         2.376899         0.954250         0.748313
 O         2.286741         2.055548         1.600629
 H         5.296072        -1.035231         1.063935
 H         5.191847         0.732051         1.389237
 H         4.551342        -0.574348         2.636742
 H         2.434459        -2.216999         0.114018
 H         1.857720        -1.725559         1.717260
 H        -0.606931         0.246953         0.798526
 H        -0.332446         0.755443        -0.871696
 H        -0.544048        -0.862562        -0.430118
 H         4.070885         0.978502        -0.833145
 H         1.958833         2.728492         1.041074
