19
Iteration:  2825charge 0 multiplicity 1
 C         4.610734        -0.339681         1.686518
 C         3.338965        -0.194357         0.833024
 C         2.137364        -1.118888         0.872943
 C         1.363857        -0.054396         0.059904
 C        -0.101379        -0.066176        -0.193021
 O         2.188201         0.061402        -1.299730
 C         3.246046         0.575856        -0.547037
 C         2.504231         1.033010         0.730683
 O         2.361703         1.957151         1.730719
 H         4.881871        -1.355851         1.615954
 H         5.243076         0.464358         1.417265
 H         4.309469        -0.132683         2.738392
 H         2.185228        -2.203169         0.656889
 H         1.804664        -1.165457         1.914239
 H        -0.426519        -0.413143         0.744977
 H        -0.463602         0.940793        -0.216107
 H        -0.381657        -0.681811        -1.011302
 H         4.185366         0.946959        -0.984055
 H         1.532462         2.536922         1.398606
