19
Iteration:  2845
 C         4.604329        -0.348028         1.646269
 C         3.343294        -0.158697         0.832444
 C         2.110626        -1.076912         0.859081
 C         1.449126        -0.044867        -0.016328
 C        -0.082288        -0.062353        -0.159770
 O         2.199105        -0.061974        -1.232617
 C         3.270936         0.599655        -0.536363
 C         2.381221         1.079680         0.683599
 O         2.351894         1.934717         1.802212
 H         4.844531        -1.379419         1.485370
 H         5.400393         0.537933         1.316013
 H         4.517504        -0.338389         2.736502
 H         2.200009        -2.124643         0.522440
 H         1.580040        -1.019919         1.815660
 H        -0.688261        -0.551452         0.695329
 H        -0.567005         0.992268        -0.274943
 H        -0.202152        -0.622438        -1.115349
 H         4.085047         1.011077        -1.053037
 H         1.951880         2.921942         1.544430
