19
Iteration:   499
 C         4.696944        -0.459292         1.633322
 C         3.371484        -0.162550         0.893341
 C         2.115271        -1.098050         0.876514
 C         1.426576        -0.048117        -0.023123
 C        -0.100991        -0.017280        -0.254015
 O         2.205349         0.018996        -1.261024
 C         3.280990         0.580070        -0.464432
 C         2.344961         1.002130         0.763900
 O         2.264903         2.017328         1.749764
 H         5.015980        -1.376907         1.239453
 H         5.463798         0.356472         1.646186
 H         4.446093        -0.550317         2.659605
 H         2.347523        -2.080484         0.410136
 H         1.645888        -1.327982         1.902417
 H        -0.498280        -0.059049         0.756486
 H        -0.514783         0.950977        -0.578047
 H        -0.493574        -0.920083        -0.726118
 H         3.997078         1.097613        -1.061462
 H         2.302951         3.022865         1.318074
