19
Iteration:  4091
 C         4.629141        -0.373241         1.667461
 C         3.306951        -0.204418         0.837515
 C         2.137608        -1.229713         0.891611
 C         1.428670        -0.123796         0.073393
 C        -0.005544        -0.080630        -0.154290
 O         2.121976         0.055035        -1.233335
 C         3.262161         0.684324        -0.492625
 C         2.403826         1.010614         0.712535
 O         2.278518         2.053149         1.658365
 H         5.218034        -1.330720         1.362012
 H         5.364795         0.469140         1.626185
 H         4.396851        -0.357121         2.770186
 H         2.222621        -2.178882         0.382011
 H         1.859327        -1.370893         1.908048
 H        -0.605474        -0.240037         0.703957
 H        -0.306548         0.923301        -0.496580
 H        -0.370888        -0.639542        -1.009736
 H         4.108195         1.125411        -1.020647
 H         2.604419         2.927493         1.040732
