19
Iteration:   564
 C         4.629326        -0.487625         1.798937
 C         3.362983        -0.338703         0.935524
 C         2.252175        -1.301508         0.661400
 C         1.376964        -0.066168        -0.000971
 C        -0.126122         0.028688         0.062087
 O         2.227024         0.241634        -1.202955
 C         3.312658         0.603773        -0.473851
 C         2.427869         0.894379         0.773794
 O         2.164050         2.161594         1.447919
 H         5.389569        -1.243296         1.426006
 H         5.083241         0.568359         2.075694
 H         4.315947        -0.828281         2.811799
 H         2.352299        -2.035342        -0.125979
 H         1.694792        -1.755561         1.542028
 H        -0.426697        -0.017521         1.104693
 H        -0.462957         1.050781        -0.262767
 H        -0.524905        -0.778459        -0.569468
 H         4.112020         1.021850        -1.071973
 H         2.237217         2.836521         0.557124
