19
Iteration:  4051
 C         4.692119        -0.371400         1.569628
 C         3.348840        -0.205495         0.998312
 C         2.098828        -1.310993         0.816263
 C         1.374860        -0.076611         0.108634
 C        -0.116702        -0.010772        -0.212166
 O         2.183212         0.100333        -1.142733
 C         3.287461         0.553176        -0.374822
 C         2.423570         1.042218         0.740947
 O         2.270108         2.085134         1.534603
 H         5.161512        -1.100280         0.983745
 H         5.172442         0.706985         1.425320
 H         4.765042        -0.581797         2.589572
 H         2.291033        -2.163800         0.070086
 H         1.920890        -1.526328         1.862760
 H        -0.536636        -0.266006         0.758192
 H        -0.300217         0.970288        -0.691992
 H        -0.236161        -0.849622        -0.974221
 H         4.266605         0.856188        -0.851933
 H         1.789846         2.806693         1.295971
