19
Iteration:  1796
 C         4.598738        -0.494605         1.703469
 C         3.367400        -0.222719         0.843601
 C         2.208834        -1.237978         0.781213
 C         1.431111        -0.068375         0.194019
 C        -0.089386        -0.049565        -0.191033
 O         2.101442         0.189195        -1.157407
 C         3.249748         0.694307        -0.505456
 C         2.442854         0.946961         0.743563
 O         2.304037         2.062831         1.571334
 H         5.353475        -1.044730         1.173572
 H         5.036709         0.443210         1.936857
 H         4.332670        -1.098634         2.657310
 H         2.531152        -2.166066         0.364372
 H         1.905857        -1.446946         1.745222
 H        -0.795214        -0.222899         0.636645
 H        -0.244549         0.861330        -0.841495
 H        -0.198300        -0.967345        -0.810087
 H         4.013030         1.285805        -0.927947
 H         1.923448         2.772871         1.105485
