19
Iteration:  2722
 C         4.682232        -0.538259         1.697481
 C         3.445203        -0.251019         0.828852
 C         2.142413        -1.163751         0.859849
 C         1.443640        -0.028684         0.039772
 C        -0.023928         0.011221        -0.067438
 O         2.186133         0.116958        -1.181771
 C         3.299452         0.571084        -0.418174
 C         2.467529         1.022189         0.693706
 O         2.054620         2.077387         1.533506
 H         5.429531        -0.924722         1.048204
 H         5.218917         0.446689         1.999004
 H         4.445595        -1.325199         2.345359
 H         2.038569        -2.009798         0.235978
 H         1.640879        -1.085911         1.800341
 H        -0.345606         0.088961         1.041942
 H        -0.503066         0.758023        -0.742091
 H        -0.386763        -0.987078        -0.494161
 H         4.181096         0.937150        -1.051070
 H         1.807743         2.781615         1.072985
