19
Iteration:  4502charge 0 multiplicity 1
 C         4.587048        -0.320835         1.732514
 C         3.334205        -0.225023         0.809439
 C         2.212749        -1.234057         0.734689
 C         1.402433        -0.125892         0.015982
 C        -0.080749        -0.038811        -0.069256
 O         2.196344         0.058336        -1.242506
 C         3.212814         0.658479        -0.493450
 C         2.394628         0.977394         0.773964
 O         2.305595         2.025991         1.673032
 H         5.180937        -1.193167         1.537706
 H         5.247370         0.631106         1.461588
 H         4.415498        -0.403760         2.787529
 H         2.472836        -2.176734         0.214622
 H         1.737974        -1.266423         1.741385
 H        -0.606693        -0.337053         0.843377
 H        -0.292058         1.053915        -0.371176
 H        -0.470491        -0.774805        -0.821350
 H         3.994187         1.060216        -1.093383
 H         2.389378         3.016854         1.256579
