19
Iteration:   679charge 0 multiplicity 1
 C         4.643178        -0.339643         1.619244
 C         3.309919        -0.191771         0.919509
 C         2.191523        -1.203342         0.763709
 C         1.387100        -0.090840         0.055244
 C        -0.146047         0.000968        -0.282640
 O         2.165918         0.062688        -1.228070
 C         3.274988         0.533566        -0.392878
 C         2.397565         0.995100         0.783192
 O         2.334631         2.055505         1.713036
 H         5.019022        -1.330531         1.409117
 H         5.481094         0.375288         1.414908
 H         4.481009        -0.383525         2.708001
 H         2.432478        -2.109700         0.045513
 H         1.831262        -1.501212         1.746569
 H        -0.555829         0.024176         0.742711
 H        -0.539999         0.967763        -0.636876
 H        -0.650155        -0.848285        -0.771557
 H         4.212887         0.974245        -0.679247
 H         2.437632         2.752043         1.172388
