19
Iteration:  3379charge 0 multiplicity 1
 C         4.717464        -0.394187         1.601725
 C         3.366367        -0.270682         0.974284
 C         2.123170        -1.225358         0.765735
 C         1.467385        -0.076419        -0.020423
 C         0.009250         0.067578        -0.116229
 O         2.184176         0.095299        -1.203456
 C         3.218292         0.566729        -0.400826
 C         2.408182         0.949517         0.774624
 O         2.185719         2.088978         1.590591
 H         5.339646        -1.293233         1.347170
 H         5.289288         0.442872         1.443785
 H         4.563481        -0.533947         2.635012
 H         2.249050        -2.251433         0.394001
 H         1.738958        -1.204585         1.780731
 H        -0.477227         0.357935         0.875145
 H        -0.382400         0.893772        -0.849994
 H        -0.383522        -0.920722        -0.497819
 H         4.032321         1.021969        -1.013307
 H         1.252249         2.393689         1.237103
