19
Iteration:  1854charge 0 multiplicity 1
 C         4.589759        -0.227918         1.545856
 C         3.243057        -0.236419         0.926923
 C         2.133192        -1.200988         0.747320
 C         1.377421        -0.014966         0.025311
 C        -0.054749         0.019447        -0.195833
 O         2.214111         0.055729        -1.238112
 C         3.269248         0.575720        -0.407887
 C         2.435592         0.930224         0.811607
 O         2.354718         1.915269         1.722075
 H         5.098479        -1.260471         1.503237
 H         5.225038         0.562439         1.153067
 H         4.555820         0.069839         2.599685
 H         2.419205        -2.102312         0.187176
 H         1.639621        -1.327244         1.757221
 H        -0.557646        -0.176831         0.841960
 H        -0.625112         0.960337        -0.326584
 H        -0.355995        -0.835349        -0.891179
 H         4.350561         0.821636        -0.668173
 H         2.086633         2.863790         1.155019
