19
Iteration:  2746
 C         4.606160        -0.484013         1.677631
 C         3.324510        -0.267037         0.961605
 C         2.204357        -1.223001         0.747537
 C         1.442733        -0.053400         0.058057
 C        -0.036885         0.016888         0.045424
 O         2.243335         0.108520        -1.269937
 C         3.251321         0.637283        -0.402500
 C         2.441088         0.919205         0.765487
 O         2.110495         2.114109         1.472262
 H         5.413970        -0.889785         1.004708
 H         5.142421         0.552567         1.884144
 H         4.508991        -1.237847         2.441797
 H         2.386417        -2.046392         0.014521
 H         1.599776        -1.253098         1.701149
 H        -0.521323         0.205699         1.040226
 H        -0.363430         0.729732        -0.760529
 H        -0.406653        -0.908577        -0.396355
 H         4.050249         1.093642        -0.895798
 H         2.581900         2.900645         0.982353
