19
Iteration:  2089charge 0 multiplicity 1
 C         4.579686        -0.438405         1.748635
 C         3.368441        -0.170874         0.836240
 C         2.217355        -1.285457         0.651091
 C         1.438105        -0.145836         0.025985
 C        -0.051330         0.050281        -0.010668
 O         2.174568         0.016090        -1.254614
 C         3.211993         0.603725        -0.496287
 C         2.353208         0.924493         0.884954
 O         2.285730         2.195389         1.594845
 H         5.047870        -1.336763         1.444695
 H         5.330159         0.410759         1.713546
 H         4.139136        -0.498220         2.766361
 H         2.537050        -2.123212         0.010926
 H         1.998147        -1.716119         1.621860
 H        -0.513999         0.120757         0.949582
 H        -0.141493         1.069944        -0.470892
 H        -0.549575        -0.672510        -0.673680
 H         4.078266         1.263343        -0.900745
 H         2.156946         2.900897         0.907109
