19
Iteration:  3568charge 0 multiplicity 1
 C         4.728594        -0.341879         1.596104
 C         3.303354        -0.287822         0.978444
 C         2.134592        -1.210701         0.803413
 C         1.437486        -0.128376         0.052179
 C        -0.062226         0.064373        -0.112148
 O         2.163608         0.165777        -1.223451
 C         3.289076         0.575975        -0.392555
 C         2.428462         0.898879         0.798362
 O         2.216835         2.034140         1.516821
 H         5.307210        -1.253162         1.346544
 H         5.379127         0.569199         1.236536
 H         4.675613        -0.366446         2.671607
 H         2.349782        -2.123849         0.215105
 H         1.693871        -1.426478         1.767144
 H        -0.560069         0.347793         0.895689
 H        -0.486472         0.876566        -0.769934
 H        -0.565392        -0.982353        -0.524151
 H         4.237406         1.091915        -0.751025
 H         1.628338         2.481671         1.025947
