19
Iteration:  1264
 C         4.533186        -0.418311         1.757187
 C         3.340782        -0.168073         0.908026
 C         2.194458        -1.200873         0.560253
 C         1.425086        -0.039594        -0.033189
 C        -0.049354        -0.054863        -0.009255
 O         2.157569         0.169654        -1.248930
 C         3.282346         0.601820        -0.401835
 C         2.397980         0.922987         0.783681
 O         2.331883         2.000629         1.666482
 H         4.836078        -1.518228         1.716320
 H         5.312474         0.158213         1.340905
 H         4.471342        -0.147341         2.802124
 H         2.456442        -2.082996        -0.097809
 H         1.715331        -1.439502         1.568260
 H        -0.631024        -0.166302         0.903495
 H        -0.451908         0.943296        -0.444388
 H        -0.336050        -0.805026        -0.822545
 H         4.109326         0.974447        -1.051631
 H         2.054012         2.903050         1.121362
