19
Iteration:    83charge 0 multiplicity 1
 C         4.641692        -0.297853         1.762635
 C         3.347513        -0.267918         0.930392
 C         2.153316        -1.250763         0.709701
 C         1.403797        -0.060456         0.008147
 C        -0.093085         0.039921        -0.034526
 O         2.127858         0.060247        -1.241320
 C         3.276341         0.541123        -0.488451
 C         2.502120         0.953409         0.766034
 O         2.220133         2.090128         1.516389
 H         5.296792        -1.183848         1.515827
 H         5.230313         0.659213         1.740642
 H         4.321537        -0.435511         2.829076
 H         2.357935        -2.171727        -0.083465
 H         1.659050        -1.616572         1.679684
 H        -0.468070        -0.042337         1.012423
 H        -0.474583         0.990653        -0.417739
 H        -0.512332        -0.794521        -0.625845
 H         4.200515         0.856689        -0.997328
 H         2.892802         2.702361         1.583229
