19
Iteration:   257
 C         4.545910        -0.328435         1.757293
 C         3.405615        -0.303368         0.702798
 C         2.096735        -1.156194         0.692913
 C         1.390488         0.010547         0.069258
 C        -0.171669        -0.084717        -0.132833
 O         2.192495        -0.031442        -1.149220
 C         3.265257         0.585563        -0.421077
 C         2.463223         0.999431         0.722793
 O         2.451552         2.151204         1.584602
 H         5.366028        -1.052434         1.727781
 H         5.035678         0.653980         1.734416
 H         4.087329        -0.426547         2.737092
 H         2.088247        -1.942961        -0.025059
 H         1.793821        -1.433452         1.725488
 H        -0.591504        -0.417424         0.853004
 H        -0.623255         0.860112        -0.435492
 H        -0.510196        -0.796555        -0.904366
 H         3.986850         1.229106        -0.878908
 H         1.985349         1.997619         2.289238
