19
Iteration:  1177charge 0 multiplicity 1
 C         4.657544        -0.471046         1.538708
 C         3.342779        -0.195744         0.872083
 C         2.155698        -1.209937         0.779468
 C         1.403439        -0.086466         0.053206
 C        -0.096150         0.063567        -0.213198
 O         2.236020         0.051156        -1.208885
 C         3.246406         0.650731        -0.397247
 C         2.428215         0.998590         0.837702
 O         2.266034         2.037233         1.663705
 H         5.417256        -1.222267         1.166609
 H         4.999530         0.520616         1.818073
 H         4.402417        -0.860302         2.542232
 H         2.286180        -2.149042         0.235980
 H         1.764774        -1.524620         1.763305
 H        -0.505205         0.033422         0.770789
 H        -0.249755         1.107510        -0.561213
 H        -0.615619        -0.668820        -0.844917
 H         4.191936         1.041618        -0.773559
 H         1.484233         2.571160         1.449099
