19
Iteration:  3586charge 0 multiplicity 1
 C         4.739425        -0.347974         1.660786
 C         3.418267        -0.298602         0.924799
 C         2.228350        -1.346474         0.697634
 C         1.405901        -0.066780         0.020200
 C        -0.098054         0.086786        -0.058340
 O         2.192821         0.075657        -1.239745
 C         3.181020         0.578593        -0.328822
 C         2.309957         0.907144         0.822688
 O         2.203486         2.153532         1.527052
 H         5.310283        -1.306808         1.367003
 H         5.288243         0.393228         1.228528
 H         4.533050        -0.368675         2.749515
 H         2.360138        -2.212797         0.076215
 H         1.804501        -1.667423         1.679307
 H        -0.406954         0.364654         0.948967
 H        -0.134352         0.975350        -0.678324
 H        -0.545284        -0.686708        -0.468695
 H         4.037669         1.165693        -0.801083
 H         2.047731         2.781956         0.927788
