19
Iteration:  1624
 C         4.614027        -0.407241         1.718382
 C         3.359120        -0.325960         0.862793
 C         2.142217        -1.215341         0.759396
 C         1.352234        -0.013116         0.103119
 C        -0.073072        -0.145785        -0.168462
 O         2.168100         0.238567        -1.241295
 C         3.205292         0.607860        -0.468816
 C         2.441948         1.011845         0.774573
 O         2.333213         2.019680         1.654718
 H         5.200193        -1.262904         1.236089
 H         5.212684         0.455055         1.455956
 H         4.476097        -0.369527         2.832950
 H         2.250785        -2.111846         0.085512
 H         1.758530        -1.392913         1.774534
 H        -0.514215        -0.265163         0.820493
 H        -0.324336         0.813518        -0.605120
 H        -0.209994        -0.915593        -0.902811
 H         4.144527         1.055512        -0.876147
 H         2.339134         2.976187         1.088143
