19
Iteration:  1774charge 0 multiplicity 1
 C         4.617903        -0.537913         1.733961
 C         3.393316        -0.218669         0.833886
 C         2.206054        -1.155211         0.710294
 C         1.474370        -0.041796        -0.006269
 C        -0.082189        -0.092117        -0.037719
 O         2.158093         0.124047        -1.226429
 C         3.221221         0.636484        -0.431052
 C         2.422432         0.965304         0.811848
 O         2.250467         2.157404         1.573698
 H         5.426541        -1.029872         1.225768
 H         5.006390         0.346745         2.208506
 H         4.220345        -1.334566         2.480314
 H         2.375752        -2.031426         0.006169
 H         1.748759        -1.531685         1.569254
 H        -0.421581        -0.198910         1.020515
 H        -0.415202         0.897153        -0.503327
 H        -0.512904        -1.004486        -0.527162
 H         4.046133         1.154717        -0.880190
 H         1.813108         2.824173         0.955114
