19
Iteration:  1708charge 0 multiplicity 1
 C         4.708750        -0.358724         1.705650
 C         3.442398        -0.305064         0.817406
 C         2.208343        -1.330789         0.745928
 C         1.383207        -0.080242         0.092463
 C        -0.049402         0.124791        -0.097640
 O         2.128091         0.143700        -1.243605
 C         3.224748         0.649753        -0.434262
 C         2.432551         0.899554         0.770366
 O         2.158601         2.008660         1.617555
 H         5.270260        -1.242796         1.532515
 H         5.351812         0.522246         1.656714
 H         4.419629        -0.479623         2.822906
 H         2.449359        -2.190707         0.054357
 H         1.726212        -1.693485         1.622756
 H        -0.699825         0.208624         0.798460
 H        -0.149141         1.172804        -0.582973
 H        -0.473377        -0.690338        -0.753501
 H         4.174722         1.113999        -0.850789
 H         1.990476         2.905488         1.010177
