19
Iteration:  3809
 C         4.678097        -0.343185         1.766098
 C         3.350772        -0.330683         0.945005
 C         2.235176        -1.293941         0.667707
 C         1.442093        -0.090466         0.033861
 C        -0.095610         0.017581        -0.056543
 O         2.080572         0.135477        -1.244224
 C         3.174571         0.612854        -0.426746
 C         2.475479         0.892383         0.833220
 O         2.285452         2.096248         1.516867
 H         5.367830        -1.128968         1.505144
 H         5.163976         0.758275         1.719640
 H         4.429249        -0.321011         2.807425
 H         2.387118        -2.152441        -0.060457
 H         1.703557        -1.611050         1.562026
 H        -0.521824         0.216814         0.947660
 H        -0.275194         0.943416        -0.641984
 H        -0.522593        -0.772155        -0.729020
 H         4.030893         1.170112        -0.924502
 H         2.110517         2.868968         0.794148
