19
Iteration:   881charge 0 multiplicity 1
 C         4.583083        -0.485776         1.799131
 C         3.332148        -0.337185         0.909471
 C         2.202933        -1.232941         0.665506
 C         1.427443        -0.035751         0.004036
 C        -0.053873        -0.026276        -0.070227
 O         2.149088         0.210076        -1.192246
 C         3.250057         0.707828        -0.459158
 C         2.382715         0.873088         0.810965
 O         2.343816         2.104390         1.510627
 H         5.256198        -1.260084         1.465110
 H         5.139267         0.383797         1.531062
 H         4.498457        -0.503154         2.873265
 H         2.431396        -2.098283        -0.000318
 H         1.723797        -1.516602         1.663054
 H        -0.413400        -0.178284         0.996452
 H        -0.435704         0.865534        -0.523952
 H        -0.474909        -0.842770        -0.661335
 H         4.069973         1.215004        -1.013668
 H         1.685885         2.611983         1.150306
