19
Iteration:  2399charge 0 multiplicity 1
 C         4.576006        -0.396019         1.763257
 C         3.399927        -0.310264         0.857555
 C         2.236895        -1.266435         0.737822
 C         1.427408        -0.078003         0.117079
 C        -0.041700         0.027153        -0.115624
 O         2.101181         0.119281        -1.237827
 C         3.223667         0.647021        -0.481345
 C         2.435601         0.942311         0.736936
 O         2.320580         2.109938         1.572500
 H         5.168041        -1.326079         1.854122
 H         5.238111         0.387925         1.614519
 H         4.329481        -0.368372         2.870801
 H         2.226731        -2.161645         0.204898
 H         1.791737        -1.514370         1.678441
 H        -0.420978        -0.183787         0.907176
 H        -0.528288         0.928885        -0.513873
 H        -0.392451        -0.770187        -0.839926
 H         3.964125         1.234941        -0.943911
 H         1.645356         2.578259         0.913946
