19
Iteration:  4522charge 0 multiplicity 1
 C         4.625360        -0.270165         1.653801
 C         3.362326        -0.172649         0.823611
 C         2.141627        -1.241156         0.831681
 C         1.420557        -0.000661         0.074859
 C        -0.067029        -0.017992        -0.148149
 O         2.139397         0.042340        -1.259913
 C         3.297283         0.620159        -0.465204
 C         2.432871         0.944054         0.766020
 O         2.311748         1.904221         1.661715
 H         5.251835        -1.119779         1.440231
 H         5.083161         0.778941         1.638687
 H         4.380139        -0.362712         2.727716
 H         2.175778        -2.046117         0.043364
 H         1.684189        -1.280067         1.811793
 H        -0.433459        -0.097144         0.891607
 H        -0.463946         0.967302        -0.501939
 H        -0.396720        -0.907236        -0.680480
 H         4.062445         1.180452        -0.876220
 H         1.745938         2.653570         1.127967
