19
Iteration:  2950
 C         4.627305        -0.528280         1.775940
 C         3.378232        -0.199005         0.877954
 C         2.170103        -1.143064         0.730486
 C         1.516367        -0.012896        -0.005243
 C         0.034113        -0.020956         0.069809
 O         2.157225         0.077293        -1.273879
 C         3.290139         0.618295        -0.517900
 C         2.424356         1.002225         0.698016
 O         2.078562         2.058529         1.543446
 H         5.411990        -1.125266         1.168911
 H         5.110742         0.312119         2.138740
 H         4.044094        -1.024808         2.552332
 H         2.118879        -2.225639         0.392945
 H         1.728785        -1.041643         1.785533
 H        -0.238503         0.010469         1.109529
 H        -0.438488         0.641816        -0.591523
 H        -0.303146        -0.997062        -0.135802
 H         4.089235         1.088895        -0.965664
 H         2.271907         2.855191         1.165181
