19
Iteration:  3437charge 0 multiplicity 1
 C         4.615932        -0.430415         1.708503
 C         3.290115        -0.195105         0.920990
 C         2.197504        -1.213961         0.721139
 C         1.468096        -0.087400         0.007788
 C        -0.030272        -0.022694        -0.027583
 O         2.161883         0.056019        -1.279882
 C         3.252965         0.652325        -0.387439
 C         2.362885         0.966375         0.734175
 O         2.254441         2.069420         1.563478
 H         5.100306        -1.342898         1.394173
 H         5.214560         0.536144         1.784075
 H         4.329573        -0.417032         2.740144
 H         2.384415        -2.181840         0.105990
 H         1.879876        -1.413631         1.776296
 H        -0.363080        -0.340147         1.000250
 H        -0.290414         1.024632        -0.239614
 H        -0.436896        -0.729734        -0.814963
 H         4.010219         1.164897        -0.916971
 H         2.478095         2.920852         0.990049
