19
Iteration:  4004
 C         4.675975        -0.450215         1.721870
 C         3.393780        -0.267403         0.862689
 C         2.237773        -1.238456         0.807634
 C         1.424580        -0.064425         0.058297
 C        -0.171923         0.015581        -0.014826
 O         2.237302         0.083607        -1.189952
 C         3.261443         0.676307        -0.470226
 C         2.326769         0.988578         0.645719
 O         2.200269         2.050812         1.517699
 H         5.369983        -1.274765         1.318932
 H         5.199876         0.513943         1.940014
 H         4.321706        -0.759392         2.768906
 H         2.522043        -2.127508         0.267682
 H         1.690939        -1.368788         1.705998
 H        -0.498150         0.110159         1.010648
 H        -0.287578         0.912649        -0.631469
 H        -0.522778        -0.843540        -0.576878
 H         4.009795         1.220986        -0.974085
 H         2.268751         2.804104         1.080288
