19
Iteration:  3544charge 0 multiplicity 1
 C         4.633884        -0.393120         1.604139
 C         3.306547        -0.256310         0.856885
 C         2.143062        -1.162812         0.870759
 C         1.473558         0.011999         0.079050
 C        -0.008256        -0.018096        -0.119340
 O         2.182173         0.031830        -1.219421
 C         3.267005         0.604719        -0.513536
 C         2.479847         1.045829         0.716761
 O         2.194598         2.000973         1.682531
 H         5.270771        -1.287786         1.248617
 H         5.284990         0.479139         1.486012
 H         4.459532        -0.630825         2.657874
 H         2.201880        -2.114288         0.405675
 H         1.586888        -1.176586         1.785115
 H        -0.696078         0.093758         0.795233
 H        -0.490767         0.720426        -0.813749
 H        -0.183342        -1.030200        -0.611340
 H         4.220715         0.896025        -1.056187
 H         1.630477         2.798721         1.251607
