19
Iteration:   483
 C         4.559523        -0.390888         1.594183
 C         3.299509        -0.179923         0.890970
 C         2.124178        -1.073043         0.848229
 C         1.410690         0.029459         0.068843
 C         0.017623        -0.045899        -0.239036
 O         2.158782         0.005805        -1.159089
 C         3.246830         0.594704        -0.489662
 C         2.474817         1.058034         0.682853
 O         2.296673         1.905993         1.751423
 H         5.137470        -1.302979         1.114528
 H         5.262931         0.415752         1.411705
 H         4.555253        -0.595523         2.730889
 H         2.018041        -2.105615         0.542074
 H         1.719867        -1.047445         1.828732
 H        -0.709482        -0.267303         0.574726
 H        -0.281545         0.791881        -0.874737
 H         0.026409        -0.903540        -0.937156
 H         4.181329         0.931533        -1.002542
 H         2.061878         2.843004         1.357856
