19
Iteration:  1054charge 0 multiplicity 1
 C         4.533290        -0.414916         1.798844
 C         3.349693        -0.254687         0.875525
 C         2.149266        -1.233398         0.620570
 C         1.416591         0.054158         0.035459
 C        -0.074565        -0.084249        -0.035830
 O         2.158735         0.173909        -1.237824
 C         3.279640         0.646099        -0.509494
 C         2.487253         0.969716         0.744640
 O         2.336902         2.015410         1.626103
 H         4.885528        -1.520065         1.612770
 H         5.320074         0.275754         1.591342
 H         4.316094        -0.346701         2.924428
 H         2.102675        -2.209108         0.087110
 H         1.907568        -1.294472         1.638632
 H        -0.410530        -0.413843         0.994488
 H        -0.683235         0.760018        -0.335229
 H        -0.254655        -0.903311        -0.730530
 H         4.199532         1.060875        -0.996444
 H         1.855958         2.636087         1.133087
