19
Iteration:  4449
 C         4.668082        -0.419248         1.673254
 C         3.359340        -0.319265         0.882552
 C         2.155810        -1.220033         0.734229
 C         1.411549        -0.120993         0.085037
 C        -0.066022        -0.111451        -0.048035
 O         2.183392         0.179265        -1.261966
 C         3.235075         0.663390        -0.387930
 C         2.458213         0.931016         0.845183
 O         2.233386         2.172111         1.498821
 H         5.123462        -1.335861         1.327738
 H         5.369576         0.450508         1.723819
 H         4.445172        -0.584488         2.711621
 H         2.244795        -1.982845         0.016786
 H         1.821933        -1.448667         1.746620
 H        -0.563597        -0.369439         0.878825
 H        -0.421621         0.928210        -0.344481
 H        -0.295971        -0.838053        -0.883353
 H         4.124866         1.139301        -0.727730
 H         1.678388         2.842414         0.839875
