19
Iteration:  4852charge 0 multiplicity 1
 C         4.657686        -0.387072         1.627772
 C         3.350262        -0.219974         0.968284
 C         2.213534        -1.171532         0.715062
 C         1.392183        -0.039893         0.101717
 C        -0.071376        -0.067110        -0.150842
 O         2.163544         0.131024        -1.214422
 C         3.221365         0.600982        -0.427473
 C         2.449884         0.867409         0.844696
 O         2.210961         2.067573         1.569611
 H         5.317649        -1.066292         1.147878
 H         5.104834         0.647301         1.374661
 H         4.776802        -0.623542         2.674799
 H         2.523525        -2.101935         0.186020
 H         1.727859        -1.343042         1.668148
 H        -0.574452        -0.470831         0.742401
 H        -0.390111         0.902560        -0.285131
 H        -0.455323        -0.719658        -0.879124
 H         4.069079         1.004245        -0.902798
 H         2.199569         2.859727         0.936583
