19
Iteration:   165charge 0 multiplicity 1
 C         4.648353        -0.487807         1.584582
 C         3.330880        -0.231660         0.935109
 C         2.194558        -1.179995         0.851577
 C         1.447717        -0.013091         0.061188
 C        -0.035006         0.053098        -0.145349
 O         2.147303         0.035338        -1.210041
 C         3.313173         0.529944        -0.427586
 C         2.506761         1.009255         0.763453
 O         2.126767         2.197277         1.550840
 H         5.122086        -1.300413         1.041058
 H         5.362012         0.304712         1.568208
 H         4.556095        -0.842322         2.603166
 H         2.408680        -2.153049         0.233836
 H         1.677900        -1.394717         1.812116
 H        -0.542678         0.037869         0.806894
 H        -0.278405         0.949784        -0.754336
 H        -0.343897        -0.844686        -0.701811
 H         4.331695         0.617906        -0.855073
 H         1.301606         2.018396         1.807973
