19
Iteration:  2473charge 0 multiplicity 1
 C         4.688942        -0.395233         1.706509
 C         3.451128        -0.284920         0.814182
 C         2.136602        -1.198634         0.819406
 C         1.380074        -0.020355         0.074406
 C        -0.090591        -0.008459        -0.149346
 O         2.151739         0.115067        -1.173787
 C         3.236025         0.611129        -0.438399
 C         2.469375         0.941782         0.770478
 O         2.174518         2.025341         1.505749
 H         5.354102        -1.235347         1.469856
 H         5.240053         0.561451         1.695659
 H         4.523562        -0.510961         2.817777
 H         2.086104        -2.257572         0.393638
 H         1.890233        -1.322188         1.881844
 H        -0.665746        -0.191603         0.829104
 H        -0.358986         0.985398        -0.545123
 H        -0.377542        -0.801405        -0.888157
 H         3.937873         1.200032        -0.963489
 H         2.744314         2.839636         1.317891
