19
Iteration:  3463
 C         4.652762        -0.310596         1.722169
 C         3.318418        -0.350739         0.920836
 C         2.168581        -1.311145         0.687902
 C         1.404216        -0.021295         0.072962
 C        -0.239126        -0.084506        -0.099797
 O         2.186333         0.201484        -1.213577
 C         3.303175         0.585183        -0.348740
 C         2.456008         0.909483         0.819730
 O         2.337404         2.120256         1.480846
 H         5.422521        -1.022991         1.387000
 H         4.964382         0.772345         1.682518
 H         4.418252        -0.339269         2.860741
 H         2.316294        -2.055328        -0.105595
 H         1.818544        -1.766626         1.638654
 H        -0.533680        -0.414074         0.851813
 H        -0.569235         0.902660        -0.334568
 H        -0.593013        -0.758242        -0.802829
 H         4.213291         0.959171        -0.915266
 H         2.254774         2.839314         0.654441
