19
Iteration:   387charge 0 multiplicity 1
 C         4.601420        -0.497652         1.882021
 C         3.401405        -0.320672         0.861541
 C         2.206931        -1.233027         0.701366
 C         1.440176         0.004971         0.043158
 C        -0.021513         0.047655         0.083125
 O         2.194559         0.190959        -1.278485
 C         3.241426         0.595660        -0.509631
 C         2.463774         0.956404         0.735774
 O         2.104369         2.066018         1.406846
 H         5.289451        -1.265292         1.475382
 H         5.178059         0.321610         2.200032
 H         4.237445        -0.929507         2.838141
 H         2.175952        -2.216989         0.091402
 H         1.689379        -1.414055         1.667073
 H        -0.377228        -0.139293         1.114324
 H        -0.465899         0.986611        -0.233160
 H        -0.397142        -0.801413        -0.479172
 H         4.005146         1.141734        -1.107660
 H         2.733029         2.829616         1.289856
