19
Iteration:  4764charge 0 multiplicity 1
 C         4.662522        -0.359229         1.650794
 C         3.370372        -0.241364         0.820379
 C         2.210477        -1.245546         0.714721
 C         1.408070        -0.124359         0.050862
 C        -0.104912        -0.051738        -0.111082
 O         2.150749         0.139980        -1.242463
 C         3.237450         0.635523        -0.392294
 C         2.446451         0.925594         0.839134
 O         2.254108         2.106329         1.634038
 H         5.447425        -1.010839         1.367149
 H         5.233590         0.663931         1.687701
 H         4.147774        -0.578074         2.581679
 H         2.409376        -2.195954         0.095794
 H         1.729904        -1.540915         1.617227
 H        -0.426552         0.320601         0.854061
 H        -0.200164         0.717896        -0.832599
 H        -0.678810        -0.943459        -0.289490
 H         4.279200         0.848333        -0.858205
 H         1.674606         2.573131         1.134019
