19
Iteration:   908charge 0 multiplicity 1
 C         4.496841        -0.504226         1.786703
 C         3.375396        -0.240383         0.842734
 C         2.266330        -1.208438         0.610815
 C         1.447053        -0.028453         0.065786
 C        -0.054232        -0.033864         0.071004
 O         2.169489         0.153672        -1.256540
 C         3.337800         0.629798        -0.515502
 C         2.379101         0.953684         0.826119
 O         2.214319         2.114361         1.560954
 H         5.122838        -1.251874         1.239420
 H         5.144446         0.352400         2.162333
 H         4.067834        -1.022336         2.669807
 H         2.447861        -2.052742        -0.071045
 H         1.856296        -1.452690         1.595905
 H        -0.531957        -0.108639         1.024547
 H        -0.287975         0.964175        -0.429122
 H        -0.478716        -0.788695        -0.643581
 H         4.219398         0.765199        -1.159470
 H         2.177659         2.756611         0.980009
