19
Iteration:  3076charge 0 multiplicity 1
 C         4.522716        -0.435604         1.694470
 C         3.331365        -0.164113         0.862707
 C         2.198113        -1.139502         0.843712
 C         1.473485        -0.034140         0.029333
 C        -0.092416        -0.098078        -0.063873
 O         2.199428         0.088887        -1.194758
 C         3.282596         0.633965        -0.509935
 C         2.464212         0.990021         0.662585
 O         2.293484         2.005837         1.590864
 H         4.985558        -1.288888         1.365599
 H         5.189986         0.516677         1.748725
 H         4.141557        -0.674167         2.652574
 H         2.301714        -2.075260         0.297744
 H         1.891366        -1.162699         1.867071
 H        -0.521496        -0.517074         0.881041
 H        -0.695402         0.861188        -0.075776
 H        -0.505184        -0.763279        -0.952511
 H         3.998870         1.038391        -1.118404
 H         2.031735         2.779841         1.257043
