19
Iteration:   853charge 0 multiplicity 1
 C         4.633561        -0.404006         1.657443
 C         3.289219        -0.255077         0.859664
 C         2.133453        -1.231815         0.800242
 C         1.380524        -0.060745         0.031634
 C        -0.099612        -0.015809        -0.212508
 O         2.186131         0.145323        -1.231861
 C         3.296273         0.570028        -0.424047
 C         2.415425         0.951508         0.760488
 O         2.327591         2.077674         1.726281
 H         5.214513        -1.320153         1.451635
 H         5.370748         0.378632         1.193983
 H         4.650419        -0.217921         2.754233
 H         2.413390        -2.029392         0.131448
 H         1.733371        -1.596168         1.733313
 H        -0.556760        -0.161152         0.751153
 H        -0.456604         0.934607        -0.693079
 H        -0.469286        -0.855434        -0.849884
 H         4.146889         1.116076        -0.887566
 H         2.005442         2.794418         1.326437
