19
Iteration:  4201
 C         4.682508        -0.414347         1.604929
 C         3.418388        -0.239455         0.862136
 C         2.165369        -1.225014         0.879316
 C         1.448434        -0.054006         0.060503
 C        -0.045623         0.080181        -0.149887
 O         2.178369         0.006012        -1.202281
 C         3.213243         0.639089        -0.415139
 C         2.450666         0.998691         0.738691
 O         2.101393         2.024521         1.597398
 H         5.454495        -1.029575         1.101816
 H         5.148464         0.475716         1.687993
 H         4.449485        -0.811835         2.592259
 H         2.238943        -2.264177         0.501831
 H         1.643469        -1.384748         1.799949
 H        -0.562825         0.142612         0.764465
 H        -0.246378         0.901263        -0.830940
 H        -0.214985        -0.916126        -0.577207
 H         3.994886         1.257360        -1.000860
 H         2.474420         2.974824         1.166057
