19
Iteration:   993charge 0 multiplicity 1
 C         4.698055        -0.367438         1.562810
 C         3.277712        -0.279952         0.960069
 C         2.143751        -1.205929         0.755729
 C         1.353736        -0.081513         0.154479
 C        -0.065755         0.085007        -0.294759
 O         2.239168         0.045364        -1.203604
 C         3.157847         0.603590        -0.389902
 C         2.473606         0.955216         0.811207
 O         2.301851         2.021262         1.676396
 H         5.331783        -1.114483         1.233207
 H         5.249093         0.619550         1.293574
 H         4.703862        -0.459117         2.599190
 H         2.250220        -2.043861         0.017746
 H         1.871346        -1.753124         1.779382
 H        -0.616491         0.173346         0.631781
 H        -0.203263         1.074051        -0.824072
 H        -0.637708        -0.651045        -0.961587
 H         4.025444         0.968173        -0.913248
 H         1.762391         2.866414         1.365663
