19
Iteration:  3186
 C         4.611759        -0.426702         1.541889
 C         3.289838        -0.159363         0.952102
 C         2.201531        -1.166127         0.866323
 C         1.439104        -0.017894         0.091197
 C         0.012552         0.061794        -0.152805
 O         2.214906         0.009623        -1.242683
 C         3.268660         0.577999        -0.500488
 C         2.378443         1.008621         0.724765
 O         2.122439         1.984935         1.677655
 H         5.182381        -1.232103         1.159924
 H         5.488765         0.408432         1.396910
 H         4.513240        -0.597986         2.621986
 H         2.431954        -2.137977         0.405588
 H         1.592773        -1.377623         1.746782
 H        -0.432568         0.173456         0.849725
 H        -0.280569         0.792549        -0.870729
 H        -0.262518        -1.015529        -0.462547
 H         4.144770         1.144318        -0.995366
 H         2.649892         2.648359         1.406435
