19
Iteration:  3378charge 0 multiplicity 1
 C         4.716383        -0.392726         1.595816
 C         3.360945        -0.268816         0.977276
 C         2.124190        -1.237043         0.762667
 C         1.461621        -0.078012        -0.021637
 C         0.015660         0.064784        -0.114541
 O         2.185982         0.094411        -1.211021
 C         3.218829         0.565649        -0.398491
 C         2.408847         0.951383         0.783983
 O         2.184604         2.098059         1.592959
 H         5.352523        -1.263780         1.344494
 H         5.272814         0.436747         1.424976
 H         4.550004        -0.527240         2.644859
 H         2.221927        -2.238899         0.423656
 H         1.725426        -1.221254         1.764993
 H        -0.470002         0.343249         0.870660
 H        -0.351831         0.887926        -0.864178
 H        -0.415699        -0.904005        -0.482822
 H         4.057985         1.024517        -1.022898
 H         1.311050         2.381507         1.256929
