19
Iteration:  2585
 C         4.543592        -0.455022         1.774338
 C         3.375749        -0.120856         0.853168
 C         2.243404        -1.186452         0.727223
 C         1.454763        -0.075900         0.086557
 C        -0.071116        -0.052902        -0.018007
 O         2.164855         0.060495        -1.233077
 C         3.244877         0.606791        -0.502786
 C         2.403807         1.013179         0.734552
 O         2.327645         2.067893         1.542475
 H         4.933170        -1.524783         1.690219
 H         5.337285         0.225632         1.681592
 H         3.986337        -0.509502         2.813479
 H         2.418709        -1.964763        -0.044070
 H         1.786724        -1.570139         1.679482
 H        -0.502176        -0.045674         0.997954
 H        -0.368807         0.920792        -0.523338
 H        -0.584468        -0.686924        -0.769149
 H         4.030593         1.140276        -1.090696
 H         1.609079         2.477991         1.242845
