19
Iteration:  2434
 C         4.576150        -0.384473         1.757905
 C         3.258966        -0.207411         0.931025
 C         2.240538        -1.236338         0.679396
 C         1.452572        -0.034837        -0.019120
 C        -0.081174        -0.013780        -0.027854
 O         2.180409         0.072919        -1.240862
 C         3.283946         0.555741        -0.374891
 C         2.362286         0.986573         0.715277
 O         2.356232         2.063592         1.550742
 H         4.839923        -1.403224         1.379950
 H         5.262130         0.337532         1.317824
 H         4.272004        -0.102624         2.777239
 H         2.568513        -1.989294        -0.031680
 H         1.820210        -1.501980         1.676531
 H        -0.342811        -0.493768         0.889442
 H        -0.496737         0.991598         0.103191
 H        -0.619557        -0.764271        -0.657700
 H         4.047189         1.106453        -0.934142
 H         1.807869         2.908563         1.070252
