19
Iteration:  1721
 C         4.637227        -0.388723         1.710235
 C         3.365442        -0.349643         0.905207
 C         2.222263        -1.290164         0.637777
 C         1.506369        -0.050959         0.026378
 C        -0.064855         0.092043         0.008091
 O         2.167154         0.160040        -1.264277
 C         3.255814         0.594751        -0.388791
 C         2.415080         0.919359         0.801610
 O         2.142953         2.061195         1.557729
 H         5.383870        -1.020390         1.205498
 H         5.069657         0.553700         1.577783
 H         4.486326        -0.651347         2.813910
 H         2.159949        -2.260960        -0.001408
 H         1.905148        -1.482655         1.672211
 H        -0.392708        -0.015080         1.085479
 H        -0.393025         1.018568        -0.573219
 H        -0.538089        -0.741673        -0.599818
 H         4.002789         1.255644        -0.829640
 H         2.162501         2.742420         1.038909
