19
Iteration:   229
 C         4.467662        -0.359499         1.882157
 C         3.295453        -0.238462         0.962374
 C         2.223416        -1.298505         0.725971
 C         1.438864        -0.131052        -0.012744
 C        -0.060723        -0.100379        -0.031123
 O         2.029543         0.220534        -1.245927
 C         3.252721         0.616501        -0.504944
 C         2.454798         0.983885         0.711802
 O         2.472958         2.125406         1.397156
 H         5.183929        -1.104686         1.516471
 H         5.025090         0.642950         1.993749
 H         4.063956        -0.743889         2.845048
 H         2.515907        -2.142500        -0.034694
 H         1.741690        -1.537117         1.690848
 H        -0.589229        -0.407051         0.862953
 H        -0.355628         0.972144        -0.192180
 H        -0.468263        -0.702345        -0.867744
 H         4.202369         1.097639        -0.799689
 H         2.632180         1.989164         2.239426
