19
Iteration:  3550charge 0 multiplicity 1
 C         4.617961        -0.383233         1.588093
 C         3.324119        -0.280145         0.895370
 C         2.156786        -1.216541         0.870218
 C         1.446664         0.039232         0.060540
 C        -0.024583        -0.023951        -0.110915
 O         2.194804         0.068133        -1.188774
 C         3.270412         0.636237        -0.503034
 C         2.511120         1.027704         0.739134
 O         2.187458         1.992971         1.620817
 H         5.108431        -1.237369         1.190289
 H         5.259876         0.510970         1.513642
 H         4.687767        -0.461588         2.719845
 H         2.149662        -2.244106         0.363727
 H         1.481741        -1.199106         1.793128
 H        -0.616207         0.163822         0.724627
 H        -0.424469         0.715221        -0.788891
 H        -0.279719        -0.951837        -0.585302
 H         4.102872         0.785591        -1.098697
 H         1.646518         2.609669         1.277130
