19
Iteration:  4761
 C         4.664776        -0.323146         1.649793
 C         3.344088        -0.204579         0.816242
 C         2.210105        -1.251085         0.717113
 C         1.411477        -0.124229         0.044681
 C        -0.093684        -0.038092        -0.118276
 O         2.148879         0.113528        -1.245639
 C         3.258961         0.643985        -0.366806
 C         2.423258         0.922630         0.831175
 O         2.274263         2.070259         1.638935
 H         5.500983        -1.073017         1.377791
 H         5.206057         0.619921         1.580502
 H         4.217348        -0.689000         2.649474
 H         2.317510        -2.146307         0.046444
 H         1.686144        -1.516933         1.612691
 H        -0.439068         0.200833         0.877997
 H        -0.234035         0.796465        -0.894201
 H        -0.728555        -0.948062        -0.211877
 H         4.246495         0.858985        -0.840023
 H         1.689654         2.712232         1.114447
