19
Iteration:  1435
 C         4.480819        -0.455381         1.687943
 C         3.283297        -0.282964         0.864584
 C         2.220634        -1.239714         0.712904
 C         1.445237        -0.034072        -0.072989
 C        -0.107440        -0.111098        -0.043157
 O         2.204368         0.204180        -1.262523
 C         3.285399         0.665213        -0.379159
 C         2.461950         1.047796         0.735874
 O         2.337169         2.023250         1.666143
 H         4.870213        -1.501643         1.565801
 H         5.285519         0.299023         1.394637
 H         4.307812        -0.188785         2.800049
 H         2.295759        -2.250966         0.232355
 H         1.652714        -1.191693         1.597172
 H        -0.403081        -0.375903         0.961914
 H        -0.689330         0.753565        -0.311069
 H        -0.375408        -0.947438        -0.677854
 H         4.197408         1.096341        -0.848033
 H         2.218108         2.855286         1.243753
