19
Iteration:  1850
 C         4.590881        -0.231884         1.499863
 C         3.246441        -0.252105         0.961276
 C         2.093640        -1.186984         0.749705
 C         1.415504        -0.022381         0.036005
 C        -0.105278        -0.006570        -0.220849
 O         2.237423         0.044086        -1.242493
 C         3.266025         0.578854        -0.382302
 C         2.446517         0.952988         0.808915
 O         2.361940         1.934622         1.709828
 H         5.060766        -1.173686         1.482042
 H         5.173618         0.590242         1.128087
 H         4.495283         0.063510         2.634380
 H         2.411651        -2.028531         0.170011
 H         1.780123        -1.420493         1.711060
 H        -0.516616        -0.187840         0.765236
 H        -0.553398         0.995094        -0.286627
 H        -0.437206        -0.820038        -0.822521
 H         4.235311         0.876534        -0.622071
 H         2.176525         2.715731         1.423939
