19
Iteration:  2054
 C         4.596436        -0.269839         1.708840
 C         3.347834        -0.312525         0.899332
 C         2.114323        -1.198158         0.807420
 C         1.413138         0.031444         0.023269
 C        -0.084485        -0.002458        -0.010409
 O         2.161841         0.192696        -1.313271
 C         3.317411         0.523649        -0.456132
 C         2.481232         0.879663         0.726575
 O         2.266413         1.954813         1.603504
 H         5.073645        -1.263266         1.677616
 H         5.367742         0.555951         1.395154
 H         4.426169        -0.097536         2.749489
 H         2.238983        -2.065239         0.229137
 H         1.744555        -1.406815         1.828040
 H        -0.656472        -0.397613         0.822081
 H        -0.589679         0.930053        -0.380954
 H        -0.265625        -0.791035        -0.849247
 H         4.127555         1.060465        -0.986227
 H         2.308855         2.552695         0.974891
