19
Iteration:  4468
 C         4.618199        -0.447070         1.752448
 C         3.363929        -0.260559         0.893447
 C         2.231366        -1.314356         0.667074
 C         1.425403        -0.030742         0.035976
 C        -0.073570        -0.084264        -0.070938
 O         2.129103         0.142924        -1.129104
 C         3.217344         0.676093        -0.418553
 C         2.425033         0.996311         0.798376
 O         2.281057         2.099776         1.494421
 H         5.243538        -1.254522         1.388124
 H         5.296741         0.530484         1.488636
 H         4.509575        -0.266352         2.812952
 H         2.537193        -2.267564         0.075683
 H         1.640700        -1.647818         1.557786
 H        -0.481043        -0.391568         0.923235
 H        -0.628633         0.906243        -0.310962
 H        -0.252562        -0.706828        -0.989368
 H         3.903878         1.181034        -1.023361
 H         2.033602         2.870161         0.834773
