19
Iteration:  4551charge 0 multiplicity 1
 C         4.672206        -0.283168         1.625700
 C         3.332572        -0.231669         0.871545
 C         2.192021        -1.273834         0.822516
 C         1.430657        -0.086259         0.016089
 C        -0.081964         0.003738        -0.191231
 O         2.103037         0.097010        -1.236026
 C         3.289323         0.557654        -0.455263
 C         2.492200         0.995608         0.773080
 O         2.257380         2.024257         1.703732
 H         5.567413        -0.886468         1.236652
 H         5.069547         0.705416         1.543780
 H         4.459865        -0.593795         2.698774
 H         2.227059        -2.247183         0.259224
 H         1.611692        -1.514071         1.775735
 H        -0.393420         0.212495         0.867861
 H        -0.325534         0.842581        -0.808980
 H        -0.697238        -0.860409        -0.451324
 H         4.185187         0.954083        -0.992174
 H         1.466297         2.520583         1.331027
