19
Iteration:  1472charge 0 multiplicity 1
 C         4.640990        -0.309204         1.655189
 C         3.353850        -0.330238         0.905794
 C         2.155858        -1.270313         0.674817
 C         1.394641         0.014002         0.063406
 C        -0.096137         0.067000        -0.232531
 O         2.127990         0.119300        -1.170553
 C         3.234825         0.644866        -0.399055
 C         2.477110         0.895030         0.798426
 O         2.292435         1.970671         1.672880
 H         5.215864        -1.356101         1.769267
 H         5.254958         0.360299         1.071307
 H         4.590872         0.010636         2.709692
 H         2.441902        -2.206958         0.216779
 H         1.813661        -1.604972         1.689903
 H        -0.752347         0.070318         0.675433
 H        -0.314102         0.969239        -0.873309
 H        -0.224896        -0.838808        -0.869411
 H         4.119999         1.056164        -0.858460
 H         2.049036         2.823737         1.336816
