19
Iteration:  4200
 C         4.684791        -0.415635         1.612251
 C         3.430114        -0.250006         0.861826
 C         2.162026        -1.221964         0.876098
 C         1.448959        -0.055474         0.068234
 C        -0.048263         0.076814        -0.151248
 O         2.178041         0.000565        -1.210301
 C         3.210487         0.651091        -0.424278
 C         2.446763         1.006320         0.745062
 O         2.100770         2.026019         1.598354
 H         5.473614        -1.045815         1.115444
 H         5.100694         0.482289         1.666992
 H         4.470309        -0.827394         2.627133
 H         2.239286        -2.247367         0.466551
 H         1.611377        -1.391295         1.810183
 H        -0.547771         0.147819         0.763480
 H        -0.234925         0.906315        -0.813363
 H        -0.226099        -0.901064        -0.549638
 H         4.024550         1.240385        -1.018585
 H         2.461486         2.972529         1.161156
