19
Iteration:  1947
 C         4.642050        -0.435424         1.630231
 C         3.299924        -0.272612         0.972792
 C         2.097198        -1.236954         0.689876
 C         1.448829         0.014822         0.013251
 C        -0.093171        -0.079794         0.008779
 O         2.222074         0.177594        -1.204551
 C         3.339443         0.556135        -0.356388
 C         2.469584         0.974177         0.733622
 O         2.198154         2.079455         1.503561
 H         5.322912        -0.964416         1.005152
 H         5.080712         0.559477         1.897707
 H         4.553269        -0.962656         2.613787
 H         2.340034        -2.169835         0.040002
 H         1.523743        -1.454261         1.646949
 H        -0.323386         0.025364         1.033365
 H        -0.667959         0.781959        -0.433014
 H        -0.404004        -1.041913        -0.340090
 H         4.069582         1.275517        -0.739766
 H         2.194110         2.855744         0.676806
