19
Iteration:  3858charge 0 multiplicity 1
 C         4.683922        -0.391072         1.643343
 C         3.322213        -0.245512         0.841956
 C         2.065479        -1.171141         0.807129
 C         1.452378        -0.165835         0.000784
 C        -0.030502        -0.057397        -0.121956
 O         2.151905         0.001189        -1.290768
 C         3.244424         0.667582        -0.437282
 C         2.448309         1.011442         0.824143
 O         2.275307         2.139493         1.676635
 H         5.404187        -1.089269         1.091733
 H         5.121507         0.556026         1.810354
 H         4.497934        -0.708127         2.739829
 H         2.104303        -2.121375         0.375759
 H         1.621195        -1.112651         1.825395
 H        -0.432342        -0.328121         0.871960
 H        -0.353495         0.939574        -0.473022
 H        -0.370195        -0.721931        -0.908353
 H         4.140955         0.980254        -0.901086
 H         2.054225         2.835844         1.186934
