19
Iteration:    31charge 0 multiplicity 1
 C         4.508144        -0.445276         1.913073
 C         3.333870        -0.232827         0.935172
 C         2.268464        -1.174804         0.688400
 C         1.410872        -0.025532         0.014659
 C        -0.084150        -0.052930         0.042312
 O         2.073111         0.049603        -1.260643
 C         3.246381         0.570304        -0.619990
 C         2.524538         1.006415         0.704778
 O         2.297129         2.177887         1.464224
 H         5.303393        -1.035307         1.576288
 H         4.894482         0.619891         2.018147
 H         4.225059        -0.768343         2.904871
 H         2.475214        -2.014030         0.066403
 H         1.838502        -1.699305         1.572553
 H        -0.468944        -0.403548         1.035547
 H        -0.610306         0.852068        -0.277836
 H        -0.400723        -0.779296        -0.738519
 H         4.064056         0.853101        -1.296667
 H         3.110964         2.259431         2.218860
