19
Iteration:  3231
 C         4.643665        -0.378627         1.646093
 C         3.372392        -0.277027         0.945716
 C         2.141517        -1.259641         0.773147
 C         1.446529        -0.031627         0.075498
 C        -0.002110         0.032330        -0.114774
 O         2.116910         0.113348        -1.217649
 C         3.228082         0.638189        -0.381685
 C         2.382256         0.907491         0.797332
 O         2.272199         2.064075         1.507784
 H         5.169428        -1.215839         1.342860
 H         5.440800         0.435832         1.392315
 H         4.615222        -0.409187         2.777021
 H         2.220933        -2.165501         0.199493
 H         1.926398        -1.569467         1.789444
 H        -0.658676        -0.381808         0.657018
 H        -0.340488         0.952455        -0.547581
 H        -0.154173        -0.710436        -0.974012
 H         4.094319         1.266438        -0.746034
 H         1.768241         2.646859         1.065412
