19
Iteration:   773
 C         4.585728        -0.424525         1.649169
 C         3.305197        -0.299069         0.915146
 C         2.224241        -1.316409         0.652246
 C         1.444624        -0.050051         0.085573
 C         0.001098         0.108517        -0.033085
 O         2.229706         0.100345        -1.198981
 C         3.247788         0.580510        -0.422596
 C         2.384472         0.952758         0.778116
 O         2.194214         2.088017         1.549825
 H         5.317396        -1.030913         1.156051
 H         4.954166         0.653360         1.804827
 H         4.532656        -0.757554         2.674945
 H         2.314080        -2.148875        -0.020851
 H         1.728510        -1.577913         1.644857
 H        -0.560354         0.090775         0.967521
 H        -0.266364         1.108119        -0.374826
 H        -0.330417        -0.719228        -0.688274
 H         4.128492         1.099953        -0.738845
 H         1.939859         2.903614         0.958165
