19
Iteration:  4538charge 0 multiplicity 1
 C         4.637711        -0.245946         1.656573
 C         3.380958        -0.318987         0.890345
 C         2.177987        -1.178937         0.750879
 C         1.410883        -0.097122         0.034669
 C        -0.083021         0.010062        -0.091507
 O         2.170976         0.124515        -1.206715
 C         3.227007         0.553585        -0.487485
 C         2.442166         0.970679         0.695049
 O         2.282092         1.972721         1.696459
 H         5.279060        -1.047959         1.195960
 H         5.085858         0.768160         1.649418
 H         4.556494        -0.410340         2.756822
 H         2.263255        -2.150739         0.314782
 H         1.782979        -1.176545         1.818687
 H        -0.768824         0.126616         0.776833
 H        -0.298965         0.809963        -0.805441
 H        -0.263429        -0.902502        -0.729924
 H         4.215712         0.763595        -1.089618
 H         1.436719         2.600203         1.389049
