19
Iteration:  4656
 C         4.611584        -0.470701         1.660776
 C         3.393452        -0.245509         0.865468
 C         2.251637        -1.180606         0.756048
 C         1.399729        -0.136922        -0.018226
 C        -0.035107        -0.075937        -0.032080
 O         2.160100         0.082168        -1.287710
 C         3.228037         0.626591        -0.352527
 C         2.392197         1.038184         0.804974
 O         2.236147         2.142409         1.587385
 H         5.091800        -1.351486         1.355355
 H         5.275289         0.434074         1.665260
 H         4.462915        -0.549749         2.687721
 H         2.434267        -1.961118         0.008028
 H         1.914765        -1.602768         1.689342
 H        -0.501648        -0.434315         0.871986
 H        -0.397591         0.935066        -0.148101
 H        -0.465565        -0.584423        -0.901374
 H         4.108689         1.340785        -0.690615
 H         1.697851         2.780270         0.944854
