19
Iteration:  2541charge 0 multiplicity 1
 C         4.663816        -0.378192         1.592380
 C         3.389850        -0.277442         0.935607
 C         2.130524        -1.166261         0.791156
 C         1.386789        -0.069252         0.090694
 C        -0.073161         0.070481        -0.074610
 O         2.254920         0.120140        -1.194028
 C         3.275472         0.576634        -0.374095
 C         2.424423         0.902964         0.778555
 O         2.157756         2.054064         1.467674
 H         5.343253        -1.119053         1.045083
 H         5.257353         0.462127         1.783808
 H         4.742266        -1.070188         2.551569
 H         2.207394        -2.146612         0.288660
 H         1.680999        -1.416296         1.777044
 H        -0.468957         0.185140         0.978956
 H        -0.472191         0.818007        -0.837857
 H        -0.472911        -0.933813        -0.535944
 H         4.255037         1.051961        -0.700463
 H         1.809849         2.737410         0.886379
