19
Iteration:  3451
 C         4.562136        -0.316092         1.733561
 C         3.377712        -0.271124         0.940738
 C         2.187841        -1.260032         0.703661
 C         1.360209        -0.099542         0.065826
 C        -0.160168        -0.052376        -0.024215
 O         2.254580         0.159887        -1.241061
 C         3.224994         0.611787        -0.427145
 C         2.453376         0.922684         0.768112
 O         2.296261         2.090100         1.505132
 H         5.165618        -1.122454         1.333690
 H         5.305795         0.547594         1.486421
 H         4.515076        -0.654590         2.841352
 H         2.427091        -2.132718         0.007355
 H         1.549420        -1.644364         1.547329
 H        -0.675890        -0.302177         0.853414
 H        -0.557278         0.893445        -0.234091
 H        -0.434994        -0.702060        -0.804444
 H         4.210032         1.128873        -0.748703
 H         2.467373         2.827348         0.858432
