19
Iteration:  3719charge 0 multiplicity 1
 C         4.652220        -0.346805         1.582329
 C         3.373831        -0.260073         0.901538
 C         2.220895        -1.257288         0.842715
 C         1.391203         0.009253         0.038139
 C        -0.024484         0.023621        -0.204384
 O         2.106853         0.098297        -1.177104
 C         3.234232         0.570938        -0.323564
 C         2.336476         0.867592         0.849714
 O         2.341396         2.066537         1.498327
 H         5.216694        -1.230113         1.150357
 H         5.272095         0.569343         1.445019
 H         4.577416        -0.383433         2.684271
 H         2.339890        -2.170745         0.208820
 H         1.947307        -1.436737         1.930604
 H        -0.617147        -0.073617         0.786058
 H        -0.401516         0.886089        -0.779960
 H        -0.432090        -0.739677        -0.762829
 H         3.986438         1.187087        -0.718248
 H         1.587313         2.725181         1.171847
