19
Iteration:   399charge 0 multiplicity 1
 C         4.560660        -0.467364         1.802904
 C         3.442358        -0.271662         0.828870
 C         2.152775        -1.200299         0.641985
 C         1.447663        -0.077916         0.022313
 C        -0.062294         0.027088         0.036096
 O         2.141840         0.101983        -1.232971
 C         3.317987         0.594588        -0.413944
 C         2.457008         0.914532         0.736396
 O         2.153698         2.139919         1.498269
 H         5.333946        -1.179502         1.628550
 H         4.960157         0.528041         1.991433
 H         3.987076        -0.716931         2.692353
 H         2.341655        -2.027850        -0.129785
 H         1.823171        -1.633567         1.650011
 H        -0.290522        -0.068543         1.105290
 H        -0.375040         1.049189        -0.274427
 H        -0.609815        -0.720556        -0.540713
 H         4.228061         1.097371        -0.818950
 H         2.931401         2.834256         1.079641
