19
Iteration:  3758
 C         4.631113        -0.431067         1.771318
 C         3.335256        -0.168241         0.880485
 C         2.196824        -1.144231         0.808559
 C         1.449720         0.008550        -0.018479
 C        -0.125379        -0.015956        -0.028348
 O         2.155189         0.025249        -1.286246
 C         3.297984         0.598024        -0.578258
 C         2.455551         1.023667         0.695180
 O         2.225567         2.000252         1.659247
 H         5.081285        -1.355283         1.393935
 H         5.349641         0.364818         1.591576
 H         4.426446        -0.546622         2.872712
 H         2.353950        -2.018768         0.194092
 H         1.792938        -1.465280         1.765476
 H        -0.250129         0.028006         1.011810
 H        -0.687375         0.850134        -0.376989
 H        -0.284155        -1.045038        -0.470799
 H         4.267613         0.900526        -1.123244
 H         1.821905         2.692578         1.294747
