19
Iteration:  3840charge 0 multiplicity 1
 C         4.591875        -0.337654         1.611412
 C         3.306415        -0.262965         0.960254
 C         2.216986        -1.282979         0.770515
 C         1.380448        -0.003964         0.025925
 C        -0.118800        -0.002158        -0.098145
 O         2.232626         0.080216        -1.186794
 C         3.237758         0.568657        -0.427412
 C         2.440366         0.951024         0.767727
 O         2.310619         2.091598         1.578510
 H         5.277603        -1.008840         1.097314
 H         5.001958         0.678985         1.646027
 H         4.496448        -0.632920         2.644091
 H         2.438284        -2.143820         0.037408
 H         1.748859        -1.585257         1.733460
 H        -0.597535        -0.273127         0.895957
 H        -0.505753         0.916362        -0.574253
 H        -0.471826        -0.789949        -0.752667
 H         4.148048         1.035577        -0.912442
 H         1.973444         2.754773         1.090237
