19
Iteration:  1153charge 0 multiplicity 1
 C         4.703010        -0.409468         1.572423
 C         3.324994        -0.221561         0.967407
 C         2.101274        -1.193424         0.770866
 C         1.446948        -0.027332         0.017322
 C        -0.070625         0.075653        -0.149188
 O         2.184643         0.033897        -1.276998
 C         3.319040         0.639703        -0.356800
 C         2.422153         0.985830         0.762798
 O         2.209670         1.949447         1.672835
 H         5.263662        -0.882659         0.728194
 H         5.065662         0.470426         1.894573
 H         4.785516        -1.186465         2.351446
 H         2.144223        -2.276773         0.472534
 H         1.520767        -1.221068         1.679310
 H        -0.563162         0.074525         0.854210
 H        -0.252918         1.055816        -0.590657
 H        -0.477490        -0.722402        -0.803392
 H         4.221243         1.132416        -0.652935
 H         1.881240         2.884780         1.209677
