19
Iteration:  4776
 C         4.616619        -0.413683         1.689721
 C         3.409401        -0.327723         0.864863
 C         2.257185        -1.271145         0.716699
 C         1.429187        -0.098902         0.046313
 C        -0.069290        -0.032753        -0.069734
 O         2.135200         0.204763        -1.203958
 C         3.217163         0.617366        -0.471055
 C         2.484002         0.959693         0.802590
 O         2.213894         2.122601         1.595233
 H         5.228400        -1.202242         1.372644
 H         5.098659         0.650869         1.761245
 H         4.541080        -0.731504         2.741267
 H         2.404547        -2.207824         0.086060
 H         1.914840        -1.471327         1.742578
 H        -0.684460         0.325960         0.785619
 H        -0.369612         0.551226        -0.884300
 H        -0.422238        -1.004396        -0.366672
 H         3.997800         1.227084        -1.032926
 H         1.436016         2.693616         1.074575
