19
Iteration:  3155
 C         4.722593        -0.426234         1.639532
 C         3.358573        -0.306567         0.944381
 C         2.170360        -1.257220         0.750703
 C         1.424342        -0.081932         0.022591
 C        -0.080001         0.058710        -0.084325
 O         2.202403         0.099871        -1.238753
 C         3.250365         0.637568        -0.430995
 C         2.420904         0.938284         0.782491
 O         2.113201         2.093981         1.557571
 H         5.446235        -1.088701         1.270410
 H         5.142540         0.585422         1.727424
 H         4.629391        -0.564080         2.744267
 H         2.385988        -2.201080         0.306941
 H         1.624440        -1.402484         1.685324
 H        -0.437726         0.332084         0.954600
 H        -0.487617         0.773519        -0.798491
 H        -0.632139        -0.989656        -0.239762
 H         4.236521         1.085848        -0.856449
 H         2.688064         2.873678         1.099951
