19
Iteration:  4557
 C         4.663945        -0.286822         1.619551
 C         3.346602        -0.233953         0.879709
 C         2.152479        -1.246737         0.813684
 C         1.407878        -0.076874         0.017323
 C        -0.053149         0.018022        -0.156977
 O         2.135863         0.077833        -1.239523
 C         3.278737         0.579795        -0.465458
 C         2.454956         0.941125         0.819268
 O         2.261173         2.019080         1.675990
 H         5.425227        -0.843415         1.123054
 H         5.284083         0.700272         1.616819
 H         4.440427        -0.606430         2.592349
 H         2.398619        -2.202236         0.338880
 H         1.774802        -1.664678         1.727502
 H        -0.450210         0.275174         0.821818
 H        -0.360044         0.813531        -0.907390
 H        -0.641057        -0.887520        -0.487617
 H         4.146988         1.061807        -0.982927
 H         1.471208         2.724496         1.343431
