19
Iteration:  2431
 C         4.581147        -0.377012         1.745738
 C         3.272595        -0.196944         0.926364
 C         2.242982        -1.229753         0.659683
 C         1.436299        -0.064005        -0.006798
 C        -0.095851        -0.002598        -0.028545
 O         2.183909         0.061824        -1.233366
 C         3.301640         0.577433        -0.371155
 C         2.348314         0.979550         0.708135
 O         2.368147         2.079455         1.546936
 H         4.801003        -1.425595         1.471426
 H         5.277697         0.325799         1.414641
 H         4.310472        -0.132006         2.834463
 H         2.499184        -1.979067        -0.031144
 H         1.796377        -1.536878         1.571335
 H        -0.375869        -0.530159         0.967253
 H        -0.554368         1.019454         0.071555
 H        -0.655500        -0.756696        -0.679602
 H         4.084728         1.079226        -0.853040
 H         1.803711         2.696667         1.102851
