19
Iteration:  1484charge 0 multiplicity 1
 C         4.605321        -0.312353         1.602474
 C         3.307713        -0.246251         0.842682
 C         2.226444        -1.333550         0.772732
 C         1.387193        -0.115456         0.089847
 C        -0.035021         0.135225        -0.287242
 O         2.161700         0.113374        -1.131906
 C         3.251274         0.619797        -0.435775
 C         2.370813         0.939269         0.824052
 O         2.309547         1.976427         1.732416
 H         5.052631        -1.359724         1.465832
 H         5.362277         0.400121         1.207419
 H         4.471500         0.005390         2.622739
 H         2.379112        -2.068507         0.000544
 H         1.921751        -1.674096         1.821696
 H        -0.686498         0.232888         0.644999
 H        -0.062292         1.101623        -0.848409
 H        -0.495626        -0.689565        -0.916188
 H         4.145203         0.925346        -1.022850
 H         1.864980         2.704283         1.016226
