19
Iteration:  3465charge 0 multiplicity 1
 C         4.658224        -0.300727         1.723934
 C         3.307554        -0.353929         0.923516
 C         2.168558        -1.312188         0.676287
 C         1.396973        -0.026971         0.058092
 C        -0.215219        -0.078765        -0.100092
 O         2.166975         0.200295        -1.205117
 C         3.321031         0.574756        -0.352465
 C         2.448806         0.918396         0.842882
 O         2.343600         2.124363         1.470664
 H         5.526309        -0.991876         1.418776
 H         4.965365         0.708540         1.637083
 H         4.377952        -0.383341         2.824823
 H         2.276895        -2.042647        -0.054631
 H         1.856226        -1.736820         1.614179
 H        -0.562619        -0.470548         0.870824
 H        -0.610097         0.942152        -0.391682
 H        -0.589619        -0.790034        -0.817869
 H         4.195205         0.961750        -0.862014
 H         2.224559         2.823605         0.739402
