19
Iteration:  3634
 C         4.653572        -0.476939         1.781163
 C         3.486082        -0.238093         0.856605
 C         2.173816        -1.181336         0.808248
 C         1.414870        -0.066900        -0.017559
 C        -0.089415        -0.015735         0.002540
 O         2.102279         0.118659        -1.283429
 C         3.264373         0.600558        -0.539890
 C         2.492974         0.981368         0.729997
 O         2.119678         2.101862         1.573086
 H         5.368405        -1.206045         1.416824
 H         5.276135         0.524133         1.779988
 H         4.214198        -0.821135         2.684756
 H         2.224940        -2.209398         0.434057
 H         1.656428        -1.217390         1.735685
 H        -0.190194        -0.411989         1.048593
 H        -0.562367         0.951528        -0.276053
 H        -0.318549        -0.956983        -0.700701
 H         4.077695         0.972679        -1.099822
 H         2.796707         2.875483         1.372785
