19
Iteration:  3693charge 0 multiplicity 1
 C         4.708660        -0.382263         1.621095
 C         3.339645        -0.256070         0.991253
 C         2.177888        -1.226206         0.740491
 C         1.363285        -0.218670         0.109588
 C        -0.106611        -0.017757        -0.206923
 O         2.135503         0.050880        -1.175712
 C         3.195253         0.614187        -0.412701
 C         2.458378         0.955829         0.836322
 O         2.287366         2.199485         1.574989
 H         5.307288        -1.012878         0.956827
 H         5.033301         0.627394         1.539340
 H         4.908255        -0.552440         2.719259
 H         2.387078        -2.020452        -0.018515
 H         1.769784        -1.674150         1.713758
 H        -0.810807        -0.049858         0.644397
 H        -0.242167         1.064472        -0.522378
 H        -0.593779        -0.580640        -1.103532
 H         4.156950         0.928420        -1.000186
 H         2.533843         2.892501         1.035727
