19
Iteration:  2704
 C         4.654483        -0.518917         1.623057
 C         3.357946        -0.137555         0.934334
 C         2.223797        -1.129733         0.859783
 C         1.400712        -0.039035         0.075402
 C        -0.072175         0.022039        -0.114858
 O         2.198204         0.026708        -1.242324
 C         3.297629         0.608646        -0.470682
 C         2.443471         0.984256         0.755045
 O         2.168214         2.059902         1.570581
 H         5.333650        -1.125738         0.921381
 H         5.008748         0.548107         1.894507
 H         4.312276        -1.283115         2.404458
 H         2.364592        -2.252206         0.441645
 H         1.769241        -1.308856         1.933979
 H        -0.548584         0.127404         0.848237
 H        -0.261961         0.905479        -0.751630
 H        -0.340962        -0.784601        -0.730478
 H         4.167116         1.033410        -0.848253
 H         1.523542         2.540942         1.181285
