19
Iteration:  2357charge 0 multiplicity 1
 C         4.700841        -0.378788         1.623567
 C         3.327058        -0.245959         0.867762
 C         2.071414        -1.212461         0.819342
 C         1.433820        -0.037375        -0.028480
 C        -0.112119         0.012281        -0.107687
 O         2.249748        -0.027142        -1.261657
 C         3.256823         0.641719        -0.422557
 C         2.441198         1.021542         0.769994
 O         2.230227         2.070446         1.665284
 H         5.265949        -1.199985         1.075561
 H         4.990697         0.661621         1.659651
 H         4.631825        -0.848396         2.680544
 H         2.271989        -2.209582         0.321528
 H         1.731462        -1.420906         1.886668
 H        -0.508483         0.088197         0.867494
 H        -0.538622         0.778973        -0.745591
 H        -0.505660        -0.936624        -0.561932
 H         4.090614         1.131755        -0.828332
 H         2.321605         2.909024         1.413068
