19
Iteration:  1726charge 0 multiplicity 1
 C         4.620073        -0.412273         1.689057
 C         3.330197        -0.309645         0.915175
 C         2.215910        -1.258622         0.614690
 C         1.464231        -0.061117         0.007897
 C        -0.049391         0.072084         0.026370
 O         2.195662         0.166661        -1.250213
 C         3.282326         0.597987        -0.358140
 C         2.426656         0.898111         0.799401
 O         2.143796         2.052695         1.552285
 H         5.435425        -1.029876         1.237627
 H         4.967354         0.686247         1.614959
 H         4.472305        -0.720846         2.693201
 H         2.206666        -2.157430         0.066375
 H         1.787934        -1.518588         1.629100
 H        -0.286520        -0.078235         1.062222
 H        -0.360829         0.986364        -0.415960
 H        -0.506510        -0.791123        -0.425202
 H         3.989749         1.191850        -0.944720
 H         2.239033         2.861371         0.807459
