19
Iteration:  1542
 C         4.615625        -0.436504         1.648225
 C         3.324753        -0.286191         0.835033
 C         2.150430        -1.139978         0.739951
 C         1.440679         0.018949         0.049317
 C        -0.011962         0.020520         0.006093
 O         2.182275         0.175621        -1.280146
 C         3.384935         0.501233        -0.411893
 C         2.444488         0.954185         0.755724
 O         2.138540         1.989624         1.628414
 H         5.444650        -0.840600         1.179548
 H         4.896180         0.625876         1.972302
 H         4.545487        -1.046332         2.528636
 H         2.160882        -2.174749         0.294022
 H         1.700232        -1.300685         1.771408
 H        -0.662155        -0.097273         0.928209
 H        -0.352273         0.964902        -0.504505
 H        -0.310690        -0.787464        -0.748083
 H         4.237740         0.966464        -0.864511
 H         1.878050         2.719106         0.892705
