19
Iteration:  1320charge 0 multiplicity 1
 C         4.633818        -0.398664         1.566659
 C         3.342640        -0.223538         0.909030
 C         2.157508        -1.228081         0.830358
 C         1.438769        -0.038682        -0.002855
 C        -0.024079         0.121557        -0.186786
 O         2.191706         0.063439        -1.209875
 C         3.266188         0.596302        -0.393984
 C         2.401247         1.008309         0.748488
 O         2.200185         1.922477         1.716722
 H         5.285430        -1.091734         0.976444
 H         5.191615         0.559754         1.640247
 H         4.578669        -0.755328         2.567781
 H         2.397623        -2.059501         0.138658
 H         1.768427        -1.664076         1.832449
 H        -0.619045         0.106719         0.743588
 H        -0.198968         1.134430        -0.701173
 H        -0.496243        -0.705717        -0.797814
 H         4.095084         1.069388        -0.929695
 H         1.990457         2.839194         1.267835
