19
Iteration:  1284charge 0 multiplicity 1
 C         4.636776        -0.421904         1.760622
 C         3.408369        -0.312140         0.831865
 C         2.198599        -1.267236         0.779424
 C         1.421089        -0.043080         0.039865
 C        -0.119237         0.035782        -0.160588
 O         2.126361         0.184884        -1.231631
 C         3.221169         0.686943        -0.475136
 C         2.514487         0.953224         0.756974
 O         2.263330         1.991701         1.642131
 H         5.056036        -1.463735         1.677350
 H         5.406630         0.197529         1.508363
 H         4.207670        -0.240834         2.773824
 H         2.408556        -2.037129        -0.049578
 H         1.864440        -1.675676         1.745859
 H        -0.606990        -0.014919         0.872969
 H        -0.419881         0.996556        -0.687528
 H        -0.462407        -0.772890        -0.873786
 H         4.139735         1.176100        -0.894480
 H         1.657714         2.691679         1.454493
