19
Iteration:   618
 C         4.651761        -0.398524         1.674981
 C         3.342918        -0.269075         0.887762
 C         2.207353        -1.187088         0.793556
 C         1.366246        -0.051787         0.054771
 C        -0.155350         0.041775        -0.224042
 O         2.107488         0.031807        -1.196627
 C         3.355260         0.637478        -0.441117
 C         2.505934         1.012350         0.706204
 O         2.280864         2.004016         1.677607
 H         5.358999        -1.204969         1.227403
 H         5.148921         0.696109         1.806750
 H         4.331255        -0.731380         2.704191
 H         2.306642        -2.163095         0.413097
 H         1.680342        -1.254320         1.762414
 H        -0.615292        -0.161845         0.754870
 H        -0.442346         1.080951        -0.596745
 H        -0.427118        -0.786088        -0.900302
 H         4.274997         0.888509        -0.984429
 H         1.741299         2.897583         1.185608
