19
Iteration:  2892
 C         4.725063        -0.338739         1.664962
 C         3.367311        -0.343531         0.968396
 C         2.152939        -1.298265         0.706933
 C         1.447710        -0.122351         0.047701
 C        -0.056639         0.018866        -0.180387
 O         2.106198         0.154265        -1.170781
 C         3.158079         0.582384        -0.367316
 C         2.408855         0.906046         0.846606
 O         2.298635         2.152042         1.507103
 H         5.403163        -1.134985         1.394488
 H         5.077057         0.719583         1.610016
 H         4.689957        -0.536953         2.807616
 H         2.221698        -2.172173         0.023276
 H         1.868834        -1.599489         1.728161
 H        -0.526609        -0.017759         0.733891
 H        -0.346331         0.960949        -0.506482
 H        -0.441585        -0.708701        -0.864359
 H         4.060785         1.147544        -0.873781
 H         1.932828         2.846630         0.818583
