19
Iteration:  4007
 C         4.685742        -0.440880         1.725743
 C         3.396681        -0.259026         0.858844
 C         2.233577        -1.223119         0.793279
 C         1.417437        -0.078758         0.057951
 C        -0.157072         0.030901        -0.046745
 O         2.237813         0.076234        -1.185692
 C         3.246845         0.653757        -0.443800
 C         2.329926         0.980821         0.671238
 O         2.208640         2.049868         1.524845
 H         5.305908        -1.175857         1.342114
 H         5.312862         0.521847         1.901195
 H         4.412549        -0.827795         2.654525
 H         2.425833        -2.174319         0.171207
 H         1.706047        -1.260859         1.726336
 H        -0.511140         0.032243         0.981268
 H        -0.375144         0.970625        -0.582596
 H        -0.604743        -0.918361        -0.506242
 H         4.010855         1.247540        -0.909607
 H         2.194101         2.860368         0.887007
