19
Iteration:  2295charge 0 multiplicity 1
 C         4.686040        -0.464608         1.766632
 C         3.427704        -0.264938         0.839538
 C         2.172932        -1.182091         0.737951
 C         1.414948        -0.097061         0.093445
 C        -0.043190         0.037874        -0.160974
 O         2.091882         0.125286        -1.207666
 C         3.203306         0.596155        -0.393510
 C         2.428189         0.952726         0.817810
 O         2.248577         2.070459         1.526662
 H         5.392917        -1.140102         1.264939
 H         5.379325         0.484154         1.719360
 H         4.539460        -0.660822         2.774193
 H         2.373672        -2.130381         0.158384
 H         1.948163        -1.386559         1.809106
 H        -0.659736         0.116408         0.749325
 H        -0.137385         1.026006        -0.694593
 H        -0.462315        -0.842683        -0.696846
 H         3.902137         1.051819        -1.036935
 H         1.653342         2.672603         0.932701
