19
Iteration:  4463charge 0 multiplicity 1
 C         4.634463        -0.459773         1.728241
 C         3.388798        -0.253472         0.920266
 C         2.205418        -1.303668         0.648324
 C         1.429582        -0.034428         0.073197
 C        -0.069551        -0.098451        -0.079853
 O         2.140846         0.147383        -1.137507
 C         3.216388         0.702960        -0.421151
 C         2.417881         0.954288         0.786434
 O         2.269859         2.141670         1.497792
 H         5.393993        -1.233399         1.421477
 H         5.148627         0.374271         1.470822
 H         4.440997        -0.287119         2.825998
 H         2.307974        -2.279743         0.169319
 H         1.652626        -1.634608         1.525936
 H        -0.456813        -0.390621         0.884871
 H        -0.531597         0.813028        -0.292748
 H        -0.380814        -0.698348        -0.921275
 H         4.073435         1.183220        -1.022072
 H         1.963890         2.703928         0.803332
