19
Iteration:  2638charge 0 multiplicity 1
 C         4.588022        -0.238270         1.745956
 C         3.335736        -0.316799         0.916544
 C         2.144985        -1.277421         0.745114
 C         1.447032        -0.042488         0.042134
 C        -0.091268        -0.032443        -0.155800
 O         2.080201         0.183648        -1.219988
 C         3.284488         0.553303        -0.428123
 C         2.460320         0.948683         0.742497
 O         2.336727         1.998056         1.579736
 H         5.301763        -1.126720         1.796409
 H         5.183915         0.605053         1.235621
 H         4.655206         0.216673         2.799845
 H         2.107758        -2.346280         0.317942
 H         1.478905        -1.536275         1.625373
 H        -0.636329        -0.375429         0.729473
 H        -0.581123         0.909144        -0.425125
 H        -0.335260        -0.780508        -0.850588
 H         4.188328         0.933911        -0.949693
 H         2.789825         2.717045         1.156573
