19
Iteration:  4950charge 0 multiplicity 1
 C         4.600111        -0.339969         1.653354
 C         3.330775        -0.297910         0.862606
 C         2.194218        -1.255743         0.817058
 C         1.422621         0.018637         0.008048
 C         0.003017        -0.011334        -0.052854
 O         2.192564         0.145725        -1.229986
 C         3.207893         0.686429        -0.471184
 C         2.430207         0.889306         0.727264
 O         2.230673         1.959286         1.596066
 H         5.374461        -1.029336         1.419169
 H         5.198175         0.625215         1.752071
 H         4.160679        -0.366539         2.638137
 H         2.291800        -2.140889         0.154977
 H         1.835062        -1.410265         1.785081
 H        -0.313373         0.101521         1.041766
 H        -0.590006         0.589290        -0.676750
 H        -0.297679        -1.057933        -0.073228
 H         4.104942         1.153930        -0.851333
 H         2.056105         2.838706         0.908452
