19
Iteration:  2484
 C         4.688827        -0.400996         1.645032
 C         3.382260        -0.293022         0.871785
 C         2.237202        -1.162931         0.849036
 C         1.436568        -0.058767         0.106028
 C        -0.077239         0.074294        -0.207189
 O         2.124638         0.051664        -1.162350
 C         3.241384         0.582714        -0.415594
 C         2.420434         0.930635         0.755836
 O         2.160585         2.063756         1.540857
 H         5.387077        -1.085679         1.152244
 H         5.163480         0.581477         1.643664
 H         4.336096        -0.711920         2.653643
 H         2.441937        -2.060029         0.165725
 H         1.753510        -1.331239         1.812406
 H        -0.687635        -0.048855         0.769259
 H        -0.456874         0.962829        -0.727310
 H        -0.316148        -0.836640        -0.748376
 H         3.903984         1.285882        -0.824179
 H         2.810148         2.591083         1.281372
