19
Iteration:  3391
 C         4.712586        -0.440905         1.695560
 C         3.394973        -0.238968         0.856492
 C         2.190444        -1.130100         0.862305
 C         1.418890        -0.008798         0.088180
 C        -0.088322         0.073468        -0.128856
 O         2.170542         0.074104        -1.194165
 C         3.304112         0.628999        -0.447890
 C         2.449530         0.941273         0.723333
 O         2.149395         1.964054         1.526355
 H         5.101887        -1.353479         1.186003
 H         5.412585         0.345055         1.536420
 H         4.619719        -0.540870         2.735923
 H         2.280440        -2.019283         0.182693
 H         1.668632        -1.402447         1.785634
 H        -0.549952         0.101379         0.914048
 H        -0.396294         0.913419        -0.842544
 H        -0.436601        -0.924571        -0.540902
 H         4.161824         1.125947        -0.854069
 H         1.293431         2.504526         1.283868
