19
Iteration:  2753
 C         4.603876        -0.444045         1.674148
 C         3.349326        -0.228749         0.959957
 C         2.245981        -1.232957         0.720836
 C         1.428428        -0.112234         0.037882
 C        -0.058397         0.033426         0.015621
 O         2.236477         0.120821        -1.236770
 C         3.228419         0.602688        -0.367469
 C         2.382884         0.955544         0.770716
 O         2.162315         2.100008         1.448937
 H         5.090095        -0.987218         0.883967
 H         5.007542         0.506585         1.988107
 H         4.519035        -1.123340         2.523718
 H         2.317216        -2.100710         0.110760
 H         1.657149        -1.676685         1.514754
 H        -0.407771         0.284856         1.056876
 H        -0.350879         0.872548        -0.634489
 H        -0.459512        -0.980273        -0.331825
 H         4.175643         1.151939        -0.777413
 H         2.758893         2.896825         1.020632
