19
Iteration:  2651charge 0 multiplicity 1
 C         4.663482        -0.215855         1.662858
 C         3.315818        -0.320645         0.942003
 C         2.149913        -1.322470         0.809100
 C         1.325955         0.017663         0.048019
 C        -0.131163        -0.006247        -0.192546
 O         2.183721         0.145609        -1.180724
 C         3.240605         0.567672        -0.443249
 C         2.465428         0.866001         0.796533
 O         2.330677         2.021221         1.581758
 H         5.296424        -1.153990         1.552292
 H         5.229530         0.585625         1.259232
 H         4.263620        -0.080411         2.738233
 H         2.430152        -2.077840         0.064136
 H         1.745831        -1.465915         1.840561
 H        -0.647879        -0.239861         0.719147
 H        -0.414285         0.970409        -0.631720
 H        -0.251232        -0.708957        -1.021465
 H         4.092855         0.890415        -0.946381
 H         2.520433         2.833898         1.034936
