19
Iteration:  4477
 C         4.604459        -0.343899         1.723657
 C         3.329253        -0.258984         0.899321
 C         2.266595        -1.265945         0.717438
 C         1.398345        -0.078394         0.048587
 C        -0.080377        -0.045857        -0.072314
 O         2.115239         0.148438        -1.216622
 C         3.226057         0.609037        -0.408890
 C         2.436300         0.945798         0.766511
 O         2.287494         2.091699         1.537582
 H         4.967278        -1.382124         1.530139
 H         5.418481         0.426274         1.565558
 H         4.408987        -0.539011         2.811966
 H         2.627003        -1.947162        -0.141780
 H         1.908961        -1.651585         1.699258
 H        -0.588753        -0.569476         0.768049
 H        -0.453070         0.960672        -0.295378
 H        -0.292862        -0.808112        -0.823111
 H         3.996877         1.189517        -0.894205
 H         2.250570         3.001051         1.044732
