19
Iteration:  3822charge 0 multiplicity 1
 C         4.652556        -0.282631         1.735891
 C         3.375822        -0.209674         0.966916
 C         2.182444        -1.249051         0.653154
 C         1.373795        -0.105668         0.081064
 C        -0.065941         0.020679        -0.085154
 O         2.051905         0.150028        -1.205727
 C         3.335582         0.540361        -0.327812
 C         2.346990         0.904473         0.744256
 O         2.330363         2.027824         1.483134
 H         5.246697        -1.066633         1.260667
 H         5.391739         0.667398         1.549356
 H         4.568503        -0.672988         2.750670
 H         2.424661        -2.015848        -0.084141
 H         1.785237        -1.726818         1.515807
 H        -0.623414         0.000908         0.809704
 H        -0.236435         1.001392        -0.563315
 H        -0.567972        -0.870031        -0.641198
 H         4.281976         1.008331        -0.719174
 H         2.051657         2.666972         0.957991
