19
Iteration:   479
 C         4.550821        -0.374580         1.568583
 C         3.302864        -0.226323         0.882922
 C         2.095005        -1.056791         0.875858
 C         1.429844         0.027087         0.106236
 C        -0.002514        -0.067118        -0.256153
 O         2.148657         0.015834        -1.179542
 C         3.284955         0.623423        -0.480895
 C         2.502411         1.047322         0.669012
 O         2.305527         1.911373         1.757089
 H         5.026217        -1.226982         1.148452
 H         5.243700         0.504863         1.506199
 H         4.470792        -0.498799         2.632530
 H         1.991623        -2.100541         0.463023
 H         1.762108        -1.235922         2.017730
 H        -0.802837        -0.257900         0.484603
 H        -0.227261         0.864924        -0.813284
 H         0.013428        -0.964109        -0.926012
 H         4.199908         0.839722        -0.995351
 H         1.954580         2.821375         1.353489
