19
Iteration:  4687charge 0 multiplicity 1
 C         4.618628        -0.320081         1.690291
 C         3.385951        -0.230868         0.888918
 C         2.214705        -1.238415         0.807587
 C         1.396680        -0.069777         0.093104
 C        -0.112409        -0.006279        -0.132778
 O         2.130163         0.085870        -1.245700
 C         3.196585         0.691274        -0.457986
 C         2.505953         0.931088         0.754968
 O         2.290622         1.995561         1.617838
 H         5.164944        -1.202208         1.362323
 H         5.175437         0.662589         1.453875
 H         4.574372        -0.564138         2.755865
 H         2.343286        -2.083888         0.023099
 H         1.984672        -1.536948         1.814731
 H        -0.707429        -0.459629         0.605699
 H        -0.433712         1.018603        -0.390930
 H        -0.254175        -0.603323        -1.027781
 H         4.220702         1.028462        -0.869228
 H         1.585427         2.613856         1.085159
