19
Iteration:  2648charge 0 multiplicity 1
 C         4.638468        -0.237920         1.678341
 C         3.324003        -0.311690         0.946050
 C         2.146160        -1.338439         0.805513
 C         1.328784         0.026798         0.043235
 C        -0.124263        -0.013463        -0.189371
 O         2.172712         0.160958        -1.178635
 C         3.244156         0.565500        -0.447336
 C         2.465758         0.869833         0.781263
 O         2.331811         2.018989         1.575140
 H         5.361601        -1.109080         1.596545
 H         5.318060         0.692977         1.254413
 H         4.333443         0.055617         2.744682
 H         2.420744        -2.154600         0.026260
 H         1.662983        -1.409275         1.819256
 H        -0.671839        -0.294507         0.722072
 H        -0.418871         0.970137        -0.569291
 H        -0.241884        -0.740111        -0.940002
 H         4.157530         0.891222        -1.027148
 H         2.583521         2.746642         1.113918
