19
Iteration:  4211
 C         4.677373        -0.362474         1.546714
 C         3.319372        -0.189149         0.898028
 C         2.202291        -1.209974         0.882891
 C         1.429113        -0.058562         0.054658
 C        -0.018095         0.053666        -0.161782
 O         2.187693         0.064635        -1.159966
 C         3.275203         0.546691        -0.423095
 C         2.396141         0.933506         0.760417
 O         2.123201         2.014161         1.574833
 H         5.216382        -1.154478         0.938411
 H         5.254036         0.387514         1.809829
 H         4.454741        -0.850325         2.537902
 H         2.322913        -2.220467         0.464535
 H         1.930428        -1.117109         1.943768
 H        -0.600444         0.129422         0.696185
 H        -0.315201         0.854666        -0.823977
 H        -0.404984        -0.764118        -0.739435
 H         4.079238         1.240804        -0.882726
 H         2.563440         2.924533         1.218095
