19
Iteration:  1130
 C         4.642702        -0.392089         1.631463
 C         3.381410        -0.344295         0.857657
 C         2.169796        -1.237290         0.801983
 C         1.448963        -0.008493         0.052520
 C        -0.053024         0.090629        -0.157653
 O         2.177831         0.168979        -1.198497
 C         3.273875         0.549817        -0.442287
 C         2.440347         0.942457         0.786717
 O         2.140953         2.044612         1.648986
 H         5.299063        -0.862439         0.916967
 H         4.862926         0.538733         1.901685
 H         4.663338        -1.135931         2.449162
 H         2.263938        -2.255231         0.269937
 H         1.696807        -1.545643         1.718873
 H        -0.524099         0.073584         0.889121
 H        -0.339074         0.994609        -0.684162
 H        -0.322474        -0.827577        -0.705656
 H         4.150457         0.835337        -1.036526
 H         2.354256         2.821457         1.204621
