19
Iteration:  4040
 C         4.657555        -0.369723         1.567081
 C         3.254121        -0.302440         0.976086
 C         2.183385        -1.268709         0.804663
 C         1.442891        -0.073937         0.111577
 C         0.022889         0.000888        -0.157093
 O         2.178684         0.097008        -1.154785
 C         3.223880         0.550071        -0.398811
 C         2.426812         0.986686         0.731224
 O         2.252095         2.174999         1.565527
 H         5.292188        -0.997824         1.022019
 H         5.216542         0.656019         1.503291
 H         4.689350        -0.667513         2.569134
 H         2.307169        -2.226455         0.186393
 H         1.499468        -1.639445         1.563214
 H        -0.660687        -0.086705         0.688989
 H        -0.430618         0.891090        -0.617238
 H        -0.298527        -0.861040        -0.832109
 H         4.162700         0.863883        -0.904921
 H         1.652473         2.705927         1.132987
