19
Iteration:  3650charge 0 multiplicity 1
 C         4.633092        -0.427447         1.686388
 C         3.345711        -0.281277         0.847358
 C         2.137870        -1.097619         0.829379
 C         1.430651        -0.034231         0.038360
 C        -0.117905        -0.139161         0.006366
 O         2.198665         0.123032        -1.256414
 C         3.254152         0.652239        -0.481532
 C         2.535617         0.997569         0.721431
 O         2.188317         2.027065         1.508850
 H         5.425809        -1.129877         1.298071
 H         5.130942         0.435708         1.959210
 H         4.367337        -0.856085         2.722764
 H         2.104054        -2.147817         0.420308
 H         1.749237        -1.034139         1.935737
 H        -0.613680        -0.474771         0.912093
 H        -0.380441         0.895371        -0.281490
 H        -0.672016        -0.727731        -0.735343
 H         4.162880         1.135218        -1.003499
 H         2.759951         2.722701         1.441576
