19
Iteration:  3876
 C         4.645258        -0.425500         1.636496
 C         3.362642        -0.164115         0.895082
 C         2.201127        -1.125051         0.905698
 C         1.431330        -0.026605         0.070027
 C        -0.107465        -0.072120        -0.208771
 O         2.163098         0.077099        -1.197670
 C         3.252287         0.578146        -0.463102
 C         2.382972         1.003295         0.689792
 O         2.281027         1.995994         1.623856
 H         5.186877        -1.131291         1.042034
 H         5.408117         0.496056         1.780582
 H         4.428044        -0.865522         2.598388
 H         2.318824        -2.235832         0.617839
 H         1.705796        -1.173376         1.871307
 H        -0.582241        -0.234910         0.737415
 H        -0.501908         0.931661        -0.405387
 H        -0.306300        -0.830559        -1.042793
 H         3.981847         1.163091        -1.007932
 H         2.096116         2.754054         1.180018
