19
Iteration:  3409
 C         4.614447        -0.493649         1.666008
 C         3.404625        -0.151239         0.858830
 C         2.219079        -1.184283         0.794324
 C         1.446878        -0.077607         0.119388
 C        -0.111638         0.028587        -0.055279
 O         2.218797         0.045887        -1.252818
 C         3.272085         0.620552        -0.513068
 C         2.483925         1.006427         0.707300
 O         2.126382         2.026511         1.629607
 H         5.024274        -1.489494         1.416624
 H         5.341980         0.318640         1.789348
 H         4.211291        -0.546814         2.750357
 H         2.314174        -2.132270         0.358931
 H         2.052688        -1.187270         1.865164
 H        -0.716661         0.052386         0.857570
 H        -0.297177         1.006316        -0.546061
 H        -0.334687        -0.738779        -0.762727
 H         4.122297         1.039675        -1.186134
 H         1.666126         2.791526         0.989517
