19
Iteration:  2971charge 0 multiplicity 1
 C         4.592005        -0.456688         1.708262
 C         3.377571        -0.228377         0.852865
 C         2.188363        -1.145177         0.863302
 C         1.472562        -0.038830         0.110508
 C        -0.130814        -0.012805        -0.037934
 O         2.212626         0.134861        -1.263959
 C         3.300535         0.621599        -0.534611
 C         2.485859         0.991996         0.706108
 O         2.142109         1.971916         1.541735
 H         5.328862        -1.153431         1.124686
 H         5.075302         0.452922         1.831571
 H         4.208507        -0.868107         2.754874
 H         2.526753        -2.085849         0.389775
 H         1.830631        -1.418451         1.902860
 H        -0.524333         0.110191         0.948809
 H        -0.395193         0.748528        -0.668494
 H        -0.565999        -0.920944        -0.344332
 H         4.187952         1.000028        -0.900613
 H         2.076343         2.906746         0.980799
