19
Iteration:  3013
 C         4.646904        -0.235513         1.531978
 C         3.272846        -0.267469         1.035732
 C         2.185646        -1.318465         0.730660
 C         1.379366        -0.139610         0.117220
 C        -0.082781         0.065080        -0.235028
 O         2.196657         0.019480        -1.196771
 C         3.169370         0.610108        -0.369866
 C         2.394992         0.955389         0.808157
 O         2.402305         2.091713         1.608020
 H         5.280407        -1.156582         1.451814
 H         5.149342         0.643270         1.282479
 H         4.594175        -0.067206         2.692588
 H         2.281531        -2.149475         0.060403
 H         1.728976        -1.761380         1.623954
 H        -0.726639         0.061775         0.628621
 H        -0.185637         0.994232        -0.718537
 H        -0.321936        -0.768690        -0.949788
 H         4.032955         1.006643        -0.762333
 H         1.848973         2.640105         1.183664
