19
Iteration:    65
 C         4.438022        -0.361708         1.793155
 C         3.373293        -0.295509         0.822991
 C         2.199509        -1.234926         0.777371
 C         1.424281        -0.059103         0.086788
 C        -0.072676        -0.011542         0.077053
 O         2.226300         0.144501        -1.247251
 C         3.253708         0.693397        -0.448103
 C         2.389584         0.853667         0.690776
 O         2.309636         2.030352         1.371629
 H         5.250051        -0.957633         1.551304
 H         4.906926         0.678939         1.725287
 H         4.146423        -0.516979         2.812095
 H         2.171990        -2.123411         0.235905
 H         1.870461        -1.228029         1.824807
 H        -0.564060        -0.208261         1.050577
 H        -0.380292         0.979879        -0.276850
 H        -0.346888        -0.809941        -0.629832
 H         3.950054         1.413338        -0.828000
 H         3.208679         2.220053         1.422264
