19
Iteration:  4145charge 0 multiplicity 1
 C         4.548793        -0.316638         1.739676
 C         3.335926        -0.248189         0.921002
 C         2.166187        -1.329836         0.652703
 C         1.418272        -0.120459         0.013718
 C        -0.051070        -0.009926         0.052785
 O         2.223288         0.148027        -1.260152
 C         3.206815         0.615930        -0.421094
 C         2.439368         0.964168         0.772711
 O         2.339362         2.082246         1.493571
 H         5.134619        -1.219504         1.432068
 H         5.061059         0.545216         1.673555
 H         4.318548        -0.445175         2.826278
 H         2.376077        -2.190166         0.040520
 H         1.776580        -1.487106         1.655996
 H        -0.346608         0.044040         1.072557
 H        -0.302738         0.885530        -0.530487
 H        -0.480481        -0.867229        -0.436303
 H         4.128488         1.102611        -0.849355
 H         1.425841         2.548299         1.088462
