19
Iteration:   920
 C         4.527668        -0.584123         1.782074
 C         3.387693        -0.160170         0.841226
 C         2.240614        -1.144462         0.658241
 C         1.436084        -0.036199        -0.019545
 C        -0.060625         0.042930         0.014636
 O         2.189433         0.086913        -1.205282
 C         3.275664         0.608263        -0.503147
 C         2.431654         0.967296         0.752408
 O         2.174016         2.052182         1.582734
 H         5.467337        -1.093728         1.332205
 H         4.916282         0.439744         1.998837
 H         4.309780        -1.082034         2.790593
 H         2.399997        -2.004470        -0.020062
 H         1.892598        -1.555587         1.561746
 H        -0.202706        -0.142368         1.071545
 H        -0.679090         0.953768        -0.238273
 H        -0.471276        -0.869982        -0.459168
 H         4.119058         1.114923        -0.922174
 H         2.422507         2.953373         1.021791
