19
Iteration:  1452charge 0 multiplicity 1
 C         4.687855        -0.359766         1.723436
 C         3.343686        -0.242920         0.872475
 C         2.044098        -1.177204         0.716604
 C         1.400570        -0.042266        -0.007623
 C        -0.087663        -0.096685        -0.131432
 O         2.199710         0.243653        -1.279557
 C         3.282936         0.571577        -0.435253
 C         2.390428         0.883462         0.787071
 O         2.317526         2.007138         1.696754
 H         4.939820        -1.415065         1.780294
 H         5.415378         0.343170         1.327244
 H         4.496580        -0.100802         2.716888
 H         2.145215        -2.031472         0.029622
 H         1.569701        -1.489720         1.734879
 H        -0.400583        -0.118259         0.961613
 H        -0.427953         0.907694        -0.472778
 H        -0.378588        -0.959044        -0.803752
 H         4.172886         1.005751        -0.916757
 H         2.308179         2.673216         1.156258
