19
Iteration:  4011
 C         4.683802        -0.410653         1.721041
 C         3.404062        -0.236581         0.859647
 C         2.226040        -1.208409         0.764861
 C         1.403151        -0.097047         0.049378
 C        -0.126950         0.032661        -0.078235
 O         2.225604         0.063230        -1.196975
 C         3.235406         0.631418        -0.406303
 C         2.355983         0.968861         0.714775
 O         2.213365         2.060679         1.522311
 H         5.362386        -1.197768         1.241881
 H         5.318106         0.426996         1.830196
 H         4.439891        -0.908518         2.713750
 H         2.273354        -2.142749         0.194758
 H         1.740740        -1.261579         1.810706
 H        -0.537216         0.003889         0.971765
 H        -0.484963         0.977918        -0.529214
 H        -0.626036        -0.862884        -0.443897
 H         4.049882         1.261783        -0.868775
 H         2.121872         2.815885         0.860212
