19
Iteration:  2478charge 0 multiplicity 1
 C         4.708583        -0.403732         1.684316
 C         3.399463        -0.302222         0.809542
 C         2.190978        -1.169861         0.841249
 C         1.414633        -0.034880         0.082370
 C        -0.090404         0.041155        -0.183598
 O         2.139739         0.090002        -1.154438
 C         3.226292         0.576346        -0.405656
 C         2.473034         0.945440         0.746857
 O         2.153082         2.034219         1.526568
 H         5.341921        -1.249934         1.286148
 H         5.116408         0.620236         1.753470
 H         4.465338        -0.507446         2.799594
 H         2.287462        -2.082132         0.293454
 H         1.820348        -1.331133         1.866624
 H        -0.671866        -0.179842         0.698702
 H        -0.420844         1.035106        -0.578570
 H        -0.387634        -0.940827        -0.763072
 H         3.845236         1.391336        -0.909353
 H         2.900297         2.686362         1.188411
