19
Iteration:  2625charge 0 multiplicity 1
 C         4.578099        -0.231724         1.768956
 C         3.331828        -0.302516         0.884019
 C         2.107441        -1.195918         0.738548
 C         1.380312        -0.084366        -0.003409
 C        -0.038455        -0.082746        -0.074103
 O         2.121009         0.149862        -1.280615
 C         3.242250         0.549515        -0.442163
 C         2.468453         0.902558         0.749410
 O         2.343165         2.029585         1.613727
 H         4.966031        -1.257219         1.780926
 H         5.479668         0.484226         1.316083
 H         4.143545         0.014958         2.722905
 H         2.316928        -2.066684         0.037020
 H         1.767736        -1.271023         1.786500
 H        -0.471897        -0.366493         0.902872
 H        -0.274555         0.942312        -0.327286
 H        -0.342652        -0.731736        -0.858090
 H         4.165478         1.062659        -0.890371
 H         2.837077         2.915221         1.233961
