19
Iteration:  1348
 C         4.682605        -0.353317         1.558170
 C         3.331313        -0.313461         0.961425
 C         2.044847        -1.220328         0.719096
 C         1.414225        -0.023322        -0.032797
 C        -0.097076         0.067837        -0.142447
 O         2.301484         0.064660        -1.243767
 C         3.259253         0.555349        -0.331669
 C         2.459542         0.973059         0.826985
 O         2.172991         2.025979         1.689914
 H         5.350982        -0.654311         0.722285
 H         5.157518         0.626255         1.797965
 H         4.788567        -1.012863         2.489765
 H         2.115505        -2.089831         0.019369
 H         1.662546        -1.589417         1.609734
 H        -0.373417        -0.032353         0.907404
 H        -0.359537         1.022561        -0.546653
 H        -0.671093        -0.687610        -0.654045
 H         4.105969         1.129674        -0.824324
 H         2.351529         2.862655         1.133454
