19
Iteration:  4667
 C         4.644354        -0.427507         1.676510
 C         3.358734        -0.168555         0.940352
 C         2.255843        -1.251828         0.717458
 C         1.472989        -0.128686         0.020345
 C        -0.063452        -0.032401        -0.088554
 O         2.143304         0.094263        -1.188661
 C         3.210021         0.627650        -0.430415
 C         2.366113         0.956665         0.747089
 O         2.273727         2.120762         1.585740
 H         5.123292        -1.310418         1.350286
 H         5.344862         0.434240         1.526171
 H         4.330520        -0.573441         2.666201
 H         2.480945        -2.116168         0.058743
 H         1.645217        -1.531028         1.567805
 H        -0.486716        -0.502908         0.793226
 H        -0.310550         1.012382        -0.142646
 H        -0.452048        -0.580606        -0.948865
 H         4.020922         1.174358        -1.078596
 H         1.557808         2.910382         1.355245
