19
Iteration:  3310
 C         4.574120        -0.377760         1.733914
 C         3.371253        -0.260327         0.804001
 C         2.212400        -1.302586         0.842480
 C         1.438962        -0.085324         0.112532
 C        -0.086954        -0.076118        -0.130089
 O         2.124219         0.160836        -1.238827
 C         3.216355         0.625104        -0.532931
 C         2.489371         0.991542         0.752530
 O         2.266230         2.078273         1.584309
 H         5.418416        -0.933478         1.507005
 H         4.934662         0.632907         1.849786
 H         4.228968        -0.892547         2.679331
 H         2.274034        -2.249565         0.431253
 H         1.721193        -1.230419         1.794596
 H        -0.615379        -0.064074         0.841632
 H        -0.395702         0.932655        -0.550107
 H        -0.330689        -0.901042        -0.860562
 H         4.106997         0.986195        -1.008467
 H         2.680384         2.978440         1.286281
