19
Iteration:  2070
 C         4.566636        -0.357812         1.747434
 C         3.332006        -0.251716         0.883473
 C         2.227296        -1.266733         0.691348
 C         1.409671        -0.071074         0.059760
 C        -0.079339         0.025831        -0.040688
 O         2.156327         0.107018        -1.218570
 C         3.246243         0.614535        -0.440877
 C         2.443827         0.952131         0.720166
 O         2.283605         2.021264         1.535826
 H         5.164989        -1.261502         1.625358
 H         5.222956         0.372109         1.421957
 H         4.316764        -0.170864         2.834077
 H         2.369935        -2.227411         0.045315
 H         1.718129        -1.517389         1.638716
 H        -0.311674        -0.138234         1.009435
 H        -0.427332         1.004450        -0.297393
 H        -0.505958        -0.635488        -0.721220
 H         4.172729         1.045764        -0.842286
 H         2.341101         2.990262         1.249870
