19
Iteration:  4266
 C         4.605421        -0.392391         1.643770
 C         3.348834        -0.247838         0.893638
 C         2.190995        -1.185976         0.750031
 C         1.412796        -0.111141         0.049340
 C        -0.108039        -0.063072        -0.068708
 O         2.194020         0.132784        -1.180472
 C         3.203277         0.612219        -0.372598
 C         2.428486         0.975954         0.810846
 O         2.330668         2.087733         1.482048
 H         5.259000        -1.347561         1.471055
 H         5.176085         0.451129         1.512070
 H         4.349734        -0.440201         2.774589
 H         2.427314        -2.066604         0.081436
 H         1.789332        -1.482689         1.729283
 H        -0.757807        -0.426145         0.661213
 H        -0.376173         0.907819        -0.455610
 H        -0.220567        -0.752642        -0.898332
 H         4.177339         1.037884        -0.729766
 H         1.661433         2.800686         1.045546
