19
Iteration:  4979
 C         4.685103        -0.401540         1.680427
 C         3.376011        -0.236787         0.939539
 C         2.329227        -1.261060         0.638691
 C         1.356727        -0.136367         0.018761
 C        -0.134623        -0.023094        -0.067542
 O         2.126498         0.103213        -1.205445
 C         3.245926         0.556527        -0.420496
 C         2.413401         0.984552         0.804842
 O         2.253503         2.168332         1.602750
 H         5.334336        -1.248890         1.254899
 H         5.343746         0.446022         1.830844
 H         4.262189        -0.455976         2.699319
 H         2.700241        -2.071750        -0.091341
 H         1.828474        -1.705901         1.534949
 H        -0.427431         0.450791         0.863957
 H        -0.444236         0.683063        -0.900798
 H        -0.752398        -0.947785        -0.342727
 H         3.972712         1.205900        -0.784806
 H         1.700650         2.773647         0.943421
