19
Iteration:  3179
 C         4.602115        -0.382761         1.549280
 C         3.287139        -0.196010         0.987544
 C         2.138746        -1.160206         0.833669
 C         1.478403        -0.027842         0.084694
 C         0.040719         0.026439        -0.110083
 O         2.250529         0.001709        -1.217796
 C         3.206862         0.649911        -0.542074
 C         2.440862         0.984738         0.730422
 O         2.124120         1.974706         1.649370
 H         4.994874        -1.287850         1.017037
 H         5.303807         0.359618         1.521512
 H         4.621640        -0.632878         2.651747
 H         2.410238        -2.055528         0.304815
 H         1.543204        -1.434586         1.728846
 H        -0.506482         0.271029         0.845943
 H        -0.236479         0.783742        -0.888292
 H        -0.451223        -0.963709        -0.439657
 H         4.135749         1.062466        -0.995384
 H         2.704559         2.801641         1.441316
