19
Iteration:   394charge 0 multiplicity 1
 C         4.589906        -0.469208         1.838115
 C         3.440019        -0.296280         0.847850
 C         2.150491        -1.205286         0.664822
 C         1.441918        -0.064390         0.037230
 C        -0.039416         0.039027         0.053687
 O         2.167045         0.147959        -1.244407
 C         3.284317         0.584878        -0.467191
 C         2.455979         0.915853         0.724005
 O         2.134880         2.128038         1.461958
 H         5.377861        -1.276513         1.662382
 H         5.126663         0.474651         2.082402
 H         3.980684        -0.894534         2.684833
 H         2.254877        -1.976620        -0.062628
 H         1.814577        -1.494442         1.626486
 H        -0.209841        -0.121798         1.132757
 H        -0.467790         0.977459        -0.282609
 H        -0.571193        -0.723931        -0.540505
 H         4.104206         1.110553        -0.911627
 H         2.734558         2.717151         1.226726
