19
Iteration:   193charge 0 multiplicity 1
 C         4.586200        -0.475192         1.773373
 C         3.372949        -0.289257         0.850700
 C         2.160813        -1.226867         0.679937
 C         1.399875        -0.041209         0.093892
 C        -0.074201        -0.015048        -0.011132
 O         2.196385         0.059117        -1.233390
 C         3.262529         0.675306        -0.347130
 C         2.415945         0.944013         0.740746
 O         2.284400         2.219389         1.353253
 H         5.282884        -1.228958         1.358484
 H         5.169468         0.495514         2.009420
 H         4.267201        -0.838684         2.780043
 H         2.242903        -2.076757         0.017007
 H         1.724571        -1.718686         1.562266
 H        -0.484211        -0.219922         1.003989
 H        -0.459168         0.926294        -0.413030
 H        -0.375820        -0.801614        -0.725391
 H         4.078351         1.302966        -0.642488
 H         2.231856         2.111798         2.242995
