19
Iteration:  4233charge 0 multiplicity 1
 C         4.720797        -0.408104         1.558646
 C         3.309594        -0.231431         0.981960
 C         2.164890        -1.228432         0.836140
 C         1.404801        -0.110551         0.025845
 C        -0.080800         0.006218        -0.150283
 O         2.213386         0.051318        -1.219950
 C         3.210180         0.583981        -0.366011
 C         2.459457         1.004509         0.773463
 O         2.174006         2.129189         1.602735
 H         5.419448        -1.101336         0.955662
 H         5.170015         0.520324         1.546430
 H         4.739439        -0.613746         2.657235
 H         2.404204        -2.112751         0.212309
 H         1.575482        -1.511962         1.739273
 H        -0.680014        -0.100756         0.700262
 H        -0.368101         0.898554        -0.685751
 H        -0.358063        -0.729273        -0.885627
 H         4.195261         0.850723        -0.895863
 H         2.290571         2.878146         1.113308
