19
Iteration:  1910
 C         4.540944        -0.478697         1.743550
 C         3.355432        -0.170082         0.878914
 C         2.296944        -1.255512         0.675912
 C         1.412765        -0.109440         0.057127
 C        -0.003984         0.038592         0.006442
 O         2.141422         0.086449        -1.201909
 C         3.266227         0.652377        -0.461725
 C         2.414817         0.983016         0.711715
 O         2.242156         2.057127         1.533743
 H         5.119775        -1.377108         1.378762
 H         5.320424         0.312381         1.905049
 H         4.123311        -0.737475         2.681549
 H         2.511986        -2.139939         0.079237
 H         1.914684        -1.616734         1.667272
 H        -0.342769        -0.015844         1.078309
 H        -0.272247         0.945090        -0.557449
 H        -0.648113        -0.665657        -0.605323
 H         3.901278         1.409600        -0.929746
 H         1.697643         2.924776         1.138203
