19
Iteration:  1664charge 0 multiplicity 1
 C         4.670920        -0.366182         1.548990
 C         3.315093        -0.200007         0.898949
 C         2.102005        -1.203137         0.826896
 C         1.424976        -0.110225         0.029971
 C        -0.055284         0.024453        -0.202930
 O         2.254943         0.056766        -1.277299
 C         3.208621         0.610816        -0.476656
 C         2.384895         1.045824         0.751394
 O         2.312874         1.956550         1.803131
 H         5.082526        -1.312114         1.623072
 H         5.372967         0.429180         1.278195
 H         4.516319        -0.008813         2.641485
 H         2.121001        -2.172400         0.201774
 H         1.807739        -1.321250         1.840405
 H        -0.681047        -0.090585         0.700353
 H        -0.520111         1.023913        -0.554833
 H        -0.422108        -0.787118        -0.921195
 H         4.165003         0.991204        -0.957125
 H         1.722746         2.671099         1.708456
