19
Iteration:  4018charge 0 multiplicity 1
 C         4.661452        -0.418214         1.686082
 C         3.411651        -0.188916         0.886932
 C         2.175893        -1.174255         0.744999
 C         1.385605        -0.108108         0.023782
 C        -0.064260         0.020848        -0.088539
 O         2.184234         0.035812        -1.238712
 C         3.242415         0.610983        -0.360472
 C         2.427468         0.923045         0.823922
 O         2.220556         2.089231         1.520245
 H         5.248712        -1.056150         1.119732
 H         5.301760         0.549791         1.785124
 H         4.488711        -0.771928         2.649211
 H         2.121514        -2.218063         0.262559
 H         1.941864        -1.450688         1.768450
 H        -0.456347         0.074190         0.925824
 H        -0.529591         0.912401        -0.535028
 H        -0.602710        -0.832976        -0.642707
 H         4.070986         1.150827        -0.809606
 H         1.915820         2.914741         0.862308
