19
Iteration:  1451
 C         4.677822        -0.357830         1.722863
 C         3.343362        -0.240782         0.868620
 C         2.040763        -1.178693         0.716417
 C         1.396386        -0.039252        -0.014442
 C        -0.083721        -0.103770        -0.123824
 O         2.203454         0.247094        -1.279017
 C         3.288009         0.575403        -0.438197
 C         2.386138         0.884063         0.785528
 O         2.319451         2.008568         1.696500
 H         4.957499        -1.462255         1.778666
 H         5.408697         0.310957         1.323494
 H         4.490254        -0.122603         2.744957
 H         2.174757        -2.061437         0.079665
 H         1.601235        -1.495735         1.721966
 H        -0.378562        -0.139888         0.960710
 H        -0.431132         0.907457        -0.463694
 H        -0.398443        -0.957283        -0.791278
 H         4.172751         0.980088        -0.905940
 H         2.310297         2.743815         1.159467
