19
Iteration:  4179
 C         4.707116        -0.376905         1.727650
 C         3.352409        -0.218209         0.903911
 C         2.191224        -1.212961         0.703506
 C         1.404188        -0.070623         0.060844
 C        -0.063370         0.037277        -0.038286
 O         2.193647         0.063098        -1.223361
 C         3.220817         0.578605        -0.487138
 C         2.462738         0.921286         0.724520
 O         2.141745         2.080567         1.600062
 H         5.389399        -1.100026         1.235197
 H         5.280818         0.464711         1.829456
 H         4.422873        -0.749471         2.709803
 H         2.181447        -2.174107         0.189372
 H         1.923917        -1.490910         1.692992
 H        -0.511754         0.277843         0.885916
 H        -0.164006         0.905595        -0.700478
 H        -0.536353        -0.847092        -0.511869
 H         4.169067         1.001043        -0.995619
 H         2.031051         2.771336         0.990643
