19
Iteration:  3491
 C         4.592851        -0.313307         1.730417
 C         3.287966        -0.288641         0.934670
 C         2.172213        -1.261926         0.763658
 C         1.440737        -0.069706         0.112665
 C        -0.026063        -0.081752        -0.158062
 O         2.123384         0.130298        -1.242608
 C         3.181212         0.631043        -0.449193
 C         2.422419         0.933818         0.826554
 O         2.409379         2.100102         1.544122
 H         5.310094        -0.984397         1.205955
 H         5.133188         0.666082         1.662567
 H         4.371705        -0.713424         2.685407
 H         2.231748        -2.113942         0.017870
 H         1.727293        -1.614574         1.704544
 H        -0.593843        -0.345862         0.810249
 H        -0.212828         0.961284        -0.538216
 H        -0.438483        -0.854579        -0.953154
 H         4.018481         1.128091        -0.982395
 H         1.934490         2.851611         0.931526
