19
Iteration:  4182charge 0 multiplicity 1
 C         4.715605        -0.409137         1.722681
 C         3.342420        -0.258875         0.891708
 C         2.181540        -1.179578         0.722763
 C         1.405863        -0.068847         0.088125
 C        -0.035012         0.021974        -0.054528
 O         2.203498         0.045967        -1.226469
 C         3.214576         0.616564        -0.517646
 C         2.453015         0.911251         0.730205
 O         2.128046         2.079582         1.616378
 H         5.424579        -1.046954         1.225028
 H         5.391069         0.637814         1.880516
 H         4.486627        -0.699474         2.724113
 H         2.111211        -2.130707         0.144581
 H         1.975924        -1.431479         1.747215
 H        -0.550769         0.320143         0.906814
 H        -0.193340         0.897807        -0.748486
 H        -0.637962        -0.802013        -0.595154
 H         4.129762         0.937541        -0.961758
 H         2.076052         2.963119         0.932282
