19
Iteration:  2360charge 0 multiplicity 1
 C         4.692895        -0.403934         1.645908
 C         3.332485        -0.238100         0.877847
 C         2.098762        -1.209904         0.834516
 C         1.403584        -0.046004         0.002475
 C        -0.122008         0.010251        -0.119094
 O         2.248174         0.003204        -1.265508
 C         3.256011         0.635331        -0.464912
 C         2.451858         0.999870         0.750049
 O         2.226310         2.056443         1.661716
 H         5.252761        -1.181431         1.054030
 H         4.994881         0.729301         1.648579
 H         4.568446        -0.753447         2.662341
 H         2.279650        -2.231629         0.275010
 H         1.740805        -1.391195         1.918548
 H        -0.526484         0.036849         0.883762
 H        -0.482592         0.850268        -0.734892
 H        -0.451156        -0.954073        -0.516138
 H         4.189168         1.126588        -0.796197
 H         2.337947         3.100339         1.433625
