19
Iteration:  1525charge 0 multiplicity 1
 C         4.663681        -0.371319         1.629244
 C         3.396683        -0.246592         0.904323
 C         2.114072        -1.216601         0.813509
 C         1.438235        -0.041928         0.036921
 C        -0.107503         0.117076        -0.141308
 O         2.236218         0.078893        -1.191335
 C         3.268615         0.664695        -0.487550
 C         2.484932         0.948302         0.728176
 O         2.167534         1.910169         1.636598
 H         5.282604        -1.126830         1.008426
 H         5.104127         0.568661         1.876538
 H         4.440057        -0.915991         2.613208
 H         2.089845        -2.161499         0.225927
 H         1.669369        -1.355597         1.774023
 H        -0.431597         0.068543         0.865231
 H        -0.454587         1.092614        -0.466976
 H        -0.437907        -0.704406        -0.729773
 H         4.181823         0.993260        -0.964137
 H         1.853100         2.728653         1.365553
