19
Iteration:   950charge 0 multiplicity 1
 C         4.613032        -0.476170         1.658910
 C         3.339077        -0.219150         0.870727
 C         2.142701        -1.234879         0.766209
 C         1.418844        -0.121520         0.068549
 C        -0.030311         0.090238        -0.050159
 O         2.240681         0.166060        -1.261095
 C         3.258501         0.626100        -0.441398
 C         2.430964         0.892512         0.747099
 O         2.176975         2.036945         1.619551
 H         5.396165        -0.782639         1.066389
 H         4.971830         0.572568         1.899640
 H         4.613056        -0.973677         2.570342
 H         2.173660        -2.232894         0.260878
 H         1.666878        -1.276350         1.836043
 H        -0.539396         0.097482         0.909858
 H        -0.281275         1.023131        -0.637187
 H        -0.449961        -0.784520        -0.650331
 H         4.262525         0.853763        -0.807478
 H         2.286328         2.827684         0.869785
