19
Iteration:  3536
 C         4.642223        -0.435859         1.616472
 C         3.382960        -0.160785         0.847772
 C         2.105395        -1.078676         0.853002
 C         1.437721        -0.038780         0.063569
 C        -0.031886        -0.010993        -0.139028
 O         2.165759         0.007404        -1.254461
 C         3.276248         0.543068        -0.493235
 C         2.428780         1.015519         0.694502
 O         2.214744         2.020508         1.740209
 H         5.248250        -1.231143         1.216410
 H         5.282023         0.555394         1.571680
 H         4.259281        -0.633391         2.609401
 H         2.216341        -2.105828         0.359810
 H         1.858266        -1.232171         1.924479
 H        -0.454106        -0.130228         0.901678
 H        -0.263330         0.792645        -0.862968
 H        -0.237427        -1.126070        -0.590810
 H         4.191133         1.059414        -0.935549
 H         1.771293         2.862068         1.211011
