19
Iteration:  1205charge 0 multiplicity 1
 C         4.641499        -0.510048         1.718120
 C         3.368736        -0.220923         0.899677
 C         2.207630        -1.239732         0.714791
 C         1.432691         0.003484         0.075887
 C        -0.012218         0.019465        -0.186234
 O         2.095127         0.215728        -1.198775
 C         3.218880         0.577144        -0.483758
 C         2.401242         0.943091         0.826874
 O         2.275600         2.015462         1.614456
 H         5.183233        -1.415403         1.524891
 H         5.246819         0.408236         1.582204
 H         4.311263        -0.408340         2.806305
 H         2.455077        -2.101988         0.008260
 H         1.847500        -1.667390         1.637767
 H        -0.468386        -0.160652         0.858831
 H        -0.358911         0.921002        -0.680982
 H        -0.250625        -0.871811        -0.786817
 H         3.955740         1.139332        -1.019552
 H         1.902415         2.851252         1.129091
