19
Iteration:   111charge 0 multiplicity 1
 C         4.676754        -0.370497         1.526624
 C         3.334000        -0.254524         0.927448
 C         2.193575        -1.231809         0.842421
 C         1.423234        -0.030410         0.112943
 C        -0.016589         0.149405        -0.195959
 O         2.208960        -0.043268        -1.198866
 C         3.263927         0.448473        -0.462873
 C         2.414598         1.007843         0.779282
 O         2.080640         2.098446         1.667536
 H         5.171903        -1.310650         1.235843
 H         5.308877         0.404976         1.153331
 H         4.687344        -0.347825         2.612160
 H         2.371137        -2.028310         0.239972
 H         1.782863        -1.424599         1.788300
 H        -0.593802         0.312124         0.700517
 H        -0.123738         1.049605        -0.833150
 H        -0.360910        -0.771065        -0.675708
 H         4.153057         0.900368        -0.930047
 H         2.345266         2.963789         1.350348
