19
Iteration:  1084charge 0 multiplicity 1
 C         4.532982        -0.449563         1.769865
 C         3.280947        -0.240381         0.928619
 C         2.294879        -1.354319         0.596880
 C         1.422910        -0.088868        -0.030823
 C        -0.105679         0.017509        -0.015783
 O         2.131476         0.151787        -1.270130
 C         3.246205         0.688695        -0.411381
 C         2.430235         0.945451         0.770269
 O         2.370661         2.128866         1.600220
 H         5.052311        -1.325944         1.449878
 H         5.100402         0.413117         1.755704
 H         4.231720        -0.634670         2.788486
 H         2.493959        -2.309683         0.050330
 H         1.987879        -1.674545         1.608816
 H        -0.459164        -0.123272         1.045470
 H        -0.438007         1.012949        -0.393932
 H        -0.501500        -0.808991        -0.636567
 H         4.133137         1.249123        -0.792349
 H         1.996120         2.753965         1.038827
