19
Iteration:  1969charge 0 multiplicity 1
 C         4.700151        -0.416854         1.616556
 C         3.332559        -0.308771         0.894747
 C         2.158140        -1.221314         0.773721
 C         1.388455        -0.043666         0.083251
 C        -0.081439        -0.046718        -0.129771
 O         2.183270         0.175450        -1.230472
 C         3.206689         0.612010        -0.375022
 C         2.433962         0.934156         0.819672
 O         2.243492         2.097858         1.546173
 H         5.446791        -0.976318         1.116075
 H         5.035390         0.593036         1.903224
 H         4.468868        -0.902535         2.596543
 H         2.228094        -2.292809         0.340917
 H         1.782622        -1.250382         1.839083
 H        -0.604570         0.092585         0.769569
 H        -0.242158         0.846467        -0.752005
 H        -0.254467        -0.977034        -0.598414
 H         4.205176         0.894295        -0.786461
 H         2.298157         2.756720         0.814774
