19
Iteration:  4861charge 0 multiplicity 1
 C         4.738238        -0.341675         1.645828
 C         3.355443        -0.302207         0.988009
 C         2.237615        -1.256756         0.790224
 C         1.396922        -0.061073         0.042851
 C        -0.134781        -0.022648        -0.184013
 O         2.076416         0.156425        -1.214973
 C         3.271541         0.599993        -0.429797
 C         2.432019         0.911975         0.811806
 O         2.236744         2.070885         1.590951
 H         5.374164        -1.004735         1.075628
 H         5.308110         0.603278         1.562422
 H         4.648050        -0.417173         2.710812
 H         2.444075        -2.210511         0.235835
 H         1.867616        -1.475566         1.731596
 H        -0.660724        -0.434684         0.670951
 H        -0.497486         0.989409        -0.392090
 H        -0.338455        -0.642427        -1.090860
 H         4.113264         1.160367        -0.858657
 H         2.020073         2.722598         0.858307
