19
Iteration:  4252charge 0 multiplicity 1
 C         4.661923        -0.362461         1.636214
 C         3.338838        -0.252190         0.934682
 C         2.114593        -1.248743         0.709509
 C         1.418583        -0.021722         0.093615
 C        -0.049449        -0.053173        -0.177674
 O         2.181467         0.032703        -1.162693
 C         3.285801         0.626181        -0.371810
 C         2.369587         0.919898         0.819883
 O         2.290029         2.168378         1.548664
 H         5.180301        -1.181181         1.074839
 H         5.358994         0.502432         1.329233
 H         4.628380        -0.576136         2.778861
 H         2.111186        -2.166221         0.113922
 H         1.666629        -1.580187         1.703999
 H        -0.337458        -0.299924         0.856895
 H        -0.423943         0.968175        -0.388898
 H        -0.370897        -0.822241        -0.875266
 H         4.026181         1.249441        -0.945642
 H         1.798240         2.657289         0.941541
