19
Iteration:  1631charge 0 multiplicity 1
 C         4.640116        -0.385187         1.630127
 C         3.334803        -0.246965         0.894240
 C         2.117950        -1.198032         0.800568
 C         1.388137         0.030215         0.050304
 C        -0.084542        -0.100059        -0.160769
 O         2.162855         0.220634        -1.251301
 C         3.253569         0.592680        -0.423096
 C         2.445348         0.934813         0.760246
 O         2.333282         1.979264         1.658578
 H         5.205676        -1.265617         1.499772
 H         5.299165         0.455165         1.407055
 H         4.322041        -0.339014         2.709544
 H         2.122970        -2.183217         0.213499
 H         1.753646        -1.421966         1.789744
 H        -0.560708        -0.488466         0.756347
 H        -0.618551         0.747347        -0.725232
 H        -0.168097        -1.000573        -0.850494
 H         4.188913         1.033459        -0.808137
 H         2.231643         2.998636         1.364983
