19
Iteration:  2961
 C         4.535555        -0.478472         1.740237
 C         3.417121        -0.223299         0.852403
 C         2.221198        -1.122488         0.862496
 C         1.440260        -0.007469         0.040653
 C        -0.025285        -0.040686         0.047628
 O         2.191804         0.120671        -1.310132
 C         3.291563         0.625484        -0.501442
 C         2.502504         0.981728         0.674588
 O         2.086915         1.995314         1.544095
 H         5.259987        -1.247330         1.207240
 H         5.083573         0.341992         2.052124
 H         4.451284        -1.100763         2.674406
 H         2.175014        -2.092886         0.272003
 H         1.733695        -1.258254         1.901840
 H        -0.445998         0.251035         0.997903
 H        -0.436542         0.707574        -0.580813
 H        -0.266147        -0.968342        -0.364413
 H         4.037559         1.027107        -1.083723
 H         2.209125         2.928619         1.066118
