19
Iteration:  2429
 C         4.570816        -0.374005         1.739567
 C         3.290264        -0.189712         0.924818
 C         2.240066        -1.219985         0.649759
 C         1.417628        -0.084823        -0.000337
 C        -0.107704        -0.002216        -0.022244
 O         2.188570         0.056181        -1.229498
 C         3.305223         0.592083        -0.373624
 C         2.346778         0.973430         0.708082
 O         2.374260         2.089363         1.544977
 H         4.807285        -1.425698         1.573217
 H         5.359932         0.363424         1.455678
 H         4.369119        -0.193628         2.824947
 H         2.464403        -2.042017        -0.067783
 H         1.754897        -1.594194         1.540565
 H        -0.383422        -0.512690         0.990450
 H        -0.575886         1.005093         0.017993
 H        -0.638532        -0.689666        -0.702853
 H         4.162993         1.086355        -0.821569
 H         1.782278         2.599519         1.116987
