19
Iteration:   218
 C         4.481053        -0.408298         1.867759
 C         3.319949        -0.254806         0.944412
 C         2.270220        -1.240089         0.750435
 C         1.376828        -0.230848        -0.076670
 C        -0.081210        -0.066737        -0.049764
 O         2.075854         0.303315        -1.234561
 C         3.222866         0.586240        -0.417484
 C         2.463961         0.908006         0.722946
 O         2.420005         2.184743         1.347598
 H         5.206303        -1.117088         1.471922
 H         5.043268         0.582016         2.109548
 H         4.190715        -0.753581         2.883596
 H         2.707172        -2.315685         0.375846
 H         1.628172        -1.629657         1.568479
 H        -0.229001        -0.374836         0.985217
 H        -0.330440         1.020839        -0.147150
 H        -0.722452        -0.643676        -0.737469
 H         3.970711         1.165938        -0.993159
 H         2.813734         2.007373         2.246587
