19
Iteration:  4928charge 0 multiplicity 1
 C         4.624024        -0.304189         1.720472
 C         3.386989        -0.216754         0.844435
 C         2.166253        -1.147770         0.746773
 C         1.395481        -0.122316         0.005477
 C        -0.094737        -0.064754        -0.016087
 O         2.180839         0.124682        -1.291443
 C         3.325927         0.556299        -0.494856
 C         2.434687         0.993853         0.689916
 O         2.209411         1.960031         1.716193
 H         5.269241        -0.932617         1.204677
 H         5.275779         0.617337         1.627526
 H         4.451277        -0.373328         2.761541
 H         1.988962        -2.132793         0.268812
 H         1.864613        -1.104578         1.739576
 H        -0.631241        -0.067399         0.985593
 H        -0.267844         0.828085        -0.560661
 H        -0.628293        -0.866329        -0.539217
 H         4.164572         0.834409        -1.083645
 H         2.263514         2.764125         1.336738
