19
Iteration:  1739charge 0 multiplicity 1
 C         4.583023        -0.400405         1.642309
 C         3.325025        -0.259716         0.899009
 C         2.128098        -1.248590         0.659644
 C         1.445190        -0.065407        -0.023144
 C        -0.042357        -0.031486         0.102811
 O         2.266453         0.178431        -1.212794
 C         3.296356         0.652713        -0.396167
 C         2.392599         0.926452         0.785466
 O         2.182906         2.045098         1.493125
 H         5.259800        -1.006368         1.086346
 H         5.145101         0.521177         2.061481
 H         4.317495        -0.958460         2.590991
 H         2.566448        -1.899898        -0.048403
 H         1.540568        -1.656875         1.438498
 H        -0.233955         0.025148         1.161389
 H        -0.488259         0.944304        -0.244228
 H        -0.604807        -0.788280        -0.449185
 H         4.388264         0.904246        -0.615280
 H         2.240659         2.718013         0.980749
