19
Iteration:  4757
 C         4.655927        -0.293370         1.650146
 C         3.330665        -0.192383         0.843483
 C         2.208536        -1.257842         0.708142
 C         1.416056        -0.120667         0.025389
 C        -0.075127        -0.012928        -0.124605
 O         2.152923         0.081305        -1.237844
 C         3.279460         0.651596        -0.365135
 C         2.378369         0.941390         0.812754
 O         2.297634         2.019546         1.641560
 H         5.382725        -1.099776         1.349848
 H         5.166114         0.648608         1.539560
 H         4.466350        -0.700202         2.661374
 H         2.219579        -2.059523         0.013785
 H         1.667078        -1.502804         1.707622
 H        -0.487451         0.175433         0.941565
 H        -0.344148         0.770188        -0.856284
 H        -0.684072        -0.951913        -0.240386
 H         4.152577         0.973583        -0.828432
 H         1.787675         2.801812         1.142177
