19
Iteration:  2752charge 0 multiplicity 1
 C         4.603011        -0.442920         1.678313
 C         3.348343        -0.233830         0.961109
 C         2.245139        -1.229176         0.725252
 C         1.427791        -0.106332         0.040530
 C        -0.057278         0.033523         0.023109
 O         2.239381         0.119834        -1.242109
 C         3.228331         0.606143        -0.371113
 C         2.391841         0.949694         0.769348
 O         2.155828         2.102790         1.450814
 H         5.134973        -0.988206         0.870341
 H         4.998490         0.479785         1.947763
 H         4.515449        -1.169640         2.517358
 H         2.318094        -2.103082         0.081088
 H         1.621357        -1.616173         1.545851
 H        -0.415154         0.271992         1.033484
 H        -0.345294         0.835479        -0.645141
 H        -0.436073        -0.966901        -0.345112
 H         4.167254         1.151541        -0.801386
 H         2.725781         2.880340         1.028775
