19
Iteration:  4120
 C         4.608473        -0.365055         1.791463
 C         3.398167        -0.286018         0.874705
 C         2.197740        -1.220504         0.696464
 C         1.384150        -0.012787         0.003700
 C        -0.092071        -0.048964        -0.041307
 O         2.118421         0.068800        -1.249677
 C         3.264674         0.597766        -0.469717
 C         2.436085         0.980224         0.731291
 O         2.297695         2.068392         1.606077
 H         5.227603        -1.242452         1.673071
 H         5.146869         0.580524         1.670028
 H         4.330080        -0.204735         2.861618
 H         2.417630        -2.014781        -0.041485
 H         1.973444        -1.478938         1.806199
 H        -0.365565        -0.218244         1.036918
 H        -0.565171         0.835743        -0.518579
 H        -0.445890        -0.807768        -0.742279
 H         4.093124         1.033396        -0.929710
 H         2.021264         2.843475         0.932076
