19
Iteration:  4396
 C         4.703465        -0.396807         1.576791
 C         3.349880        -0.241080         0.868646
 C         2.226958        -1.219251         0.811327
 C         1.424225        -0.043074         0.103734
 C        -0.047422         0.056595        -0.156048
 O         2.212455        -0.009073        -1.242539
 C         3.244789         0.588037        -0.446899
 C         2.337660         0.972841         0.774314
 O         2.166351         2.087635         1.672660
 H         5.428423        -1.053648         1.077419
 H         5.171119         0.500025         1.792914
 H         4.419212        -0.768226         2.583459
 H         2.234575        -2.169317         0.310498
 H         1.804577        -1.354835         1.840109
 H        -0.479401         0.208880         0.780562
 H        -0.391739         0.792030        -0.841180
 H        -0.302185        -0.865445        -0.612280
 H         3.990146         1.211434        -0.865923
 H         2.046414         2.890865         1.164276
