19
Iteration:   960
 C         4.647530        -0.395323         1.572862
 C         3.339759        -0.361809         0.925464
 C         2.158776        -1.232882         0.802295
 C         1.416257        -0.062978         0.018165
 C        -0.036070         0.106999        -0.187377
 O         2.187109         0.154602        -1.201415
 C         3.252229         0.569519        -0.372143
 C         2.464152         0.956287         0.826764
 O         2.200570         2.009522         1.586869
 H         5.387892        -0.872320         1.028734
 H         4.887027         0.664520         1.854735
 H         4.499374        -0.880507         2.487430
 H         2.333866        -2.195661         0.277459
 H         1.780912        -1.427745         1.895568
 H        -0.304016         0.147779         0.873905
 H        -0.336310         1.084110        -0.617996
 H        -0.585406        -0.775243        -0.603637
 H         4.078597         1.085301        -0.897996
 H         2.001684         2.841211         0.995233
