19
Iteration:  4033charge 0 multiplicity 1
 C         4.646928        -0.360527         1.564319
 C         3.278715        -0.290644         0.970630
 C         2.158790        -1.253961         0.788119
 C         1.476759        -0.055225         0.056258
 C        -0.003963        -0.008946        -0.126627
 O         2.148293         0.051007        -1.216706
 C         3.249534         0.568202        -0.407639
 C         2.417208         0.970592         0.855734
 O         2.249329         2.177802         1.562032
 H         5.370229        -1.084930         1.074036
 H         5.086827         0.584129         1.565508
 H         4.581829        -0.772842         2.624349
 H         2.463341        -2.040027         0.101464
 H         1.509984        -1.445615         1.735282
 H        -0.615577        -0.115344         0.817205
 H        -0.144586         0.959540        -0.642215
 H        -0.275600        -0.863317        -0.743067
 H         4.163557         0.976615        -0.916674
 H         1.668161         2.569471         0.946977
