19
Iteration:  4658
 C         4.608830        -0.455119         1.647082
 C         3.419149        -0.232744         0.888267
 C         2.254428        -1.196660         0.754392
 C         1.412480        -0.144827        -0.029153
 C        -0.029714        -0.065084        -0.040591
 O         2.151076         0.082714        -1.271948
 C         3.223537         0.618992        -0.364248
 C         2.383024         1.037367         0.795017
 O         2.245890         2.136717         1.591690
 H         5.057200        -1.427492         1.418360
 H         5.190598         0.452544         1.644461
 H         4.470766        -0.603967         2.719399
 H         2.414682        -1.884033        -0.010735
 H         1.827570        -1.602141         1.707898
 H        -0.542614        -0.468012         0.894361
 H        -0.380206         0.949102        -0.149748
 H        -0.482673        -0.581036        -0.926696
 H         4.065603         1.325984        -0.712282
 H         1.628511         2.845730         0.980101
