19
Iteration:  3972charge 0 multiplicity 1
 C         4.588031        -0.371366         1.756788
 C         3.430379        -0.230312         0.846658
 C         2.199175        -1.156262         0.671213
 C         1.463454         0.010197         0.000098
 C         0.055921        -0.015810         0.033685
 O         2.135276         0.077636        -1.220154
 C         3.235629         0.517464        -0.494661
 C         2.366823         0.906682         0.786003
 O         2.131471         2.062629         1.554438
 H         5.156211        -1.262664         1.475863
 H         5.306848         0.480346         1.892216
 H         4.122287        -0.508289         2.693089
 H         2.345282        -2.160292         0.170497
 H         1.648765        -1.425960         1.520634
 H        -0.212012         0.220738         1.081587
 H        -0.346901         0.835066        -0.536732
 H        -0.287123        -0.941038        -0.433967
 H         4.010276         0.971782        -1.058522
 H         2.766352         2.877907         1.137151
