19
Iteration:  2896charge 0 multiplicity 1
 C         4.726586        -0.335400         1.679154
 C         3.362910        -0.351003         0.963566
 C         2.173446        -1.272306         0.717648
 C         1.459558        -0.130920         0.024253
 C        -0.066141         0.020174        -0.161340
 O         2.119572         0.158054        -1.149053
 C         3.174717         0.598557        -0.361501
 C         2.382204         0.912753         0.861305
 O         2.298401         2.142520         1.460293
 H         5.347940        -1.196080         1.250000
 H         4.998888         0.671395         1.665375
 H         4.561808        -0.592177         2.713805
 H         2.212959        -2.083673        -0.061302
 H         1.885304        -1.822067         1.665609
 H        -0.468707         0.017832         0.899264
 H        -0.319100         1.032147        -0.563398
 H        -0.503418        -0.749590        -0.809567
 H         3.955126         1.105535        -0.788804
 H         1.941691         2.766127         0.867327
