19
Iteration:  4620charge 0 multiplicity 1
 C         4.682165        -0.475594         1.676255
 C         3.336989        -0.252539         0.911135
 C         2.165522        -1.175548         0.743831
 C         1.446762        -0.027084         0.078007
 C        -0.027593        -0.116624        -0.044339
 O         2.106846         0.184324        -1.225615
 C         3.290055         0.646051        -0.381456
 C         2.460721         0.954976         0.750875
 O         2.122433         2.072905         1.490823
 H         5.315537        -1.317438         1.271324
 H         5.269359         0.465964         1.551483
 H         4.482744        -0.885723         2.690264
 H         2.532659        -2.003843         0.004799
 H         1.854394        -1.543593         1.739420
 H        -0.381839        -0.216679         0.959700
 H        -0.325429         0.843409        -0.516455
 H        -0.346914        -1.004281        -0.554976
 H         4.064299         1.176154        -0.830766
 H         2.458687         2.991492         1.120472
