19
Iteration:  3833
 C         4.627253        -0.328411         1.645832
 C         3.255317        -0.213323         0.938729
 C         2.210727        -1.271962         0.741890
 C         1.409561        -0.065617         0.065214
 C        -0.138437         0.032851        -0.093339
 O         2.190915         0.128168        -1.170290
 C         3.314888         0.522719        -0.391410
 C         2.373262         0.933962         0.767671
 O         2.329646         2.039747         1.523689
 H         5.220959        -1.024933         1.072808
 H         5.183191         0.760608         1.720968
 H         4.550375        -0.573702         2.718562
 H         2.463902        -2.013103        -0.024445
 H         1.858621        -1.703580         1.653378
 H        -0.525673        -0.104797         0.882714
 H        -0.608225         0.907837        -0.563909
 H        -0.299330        -0.856012        -0.803199
 H         4.094830         1.058204        -0.958739
 H         1.960478         2.798418         1.048868
