19
Iteration:  1069charge 0 multiplicity 1
 C         4.490043        -0.455813         1.761150
 C         3.357045        -0.254598         0.836085
 C         2.192977        -1.168563         0.672510
 C         1.431861        -0.108801         0.002214
 C        -0.020959        -0.082345         0.002387
 O         2.140822         0.206272        -1.265753
 C         3.273074         0.591558        -0.403079
 C         2.407698         0.982592         0.767316
 O         2.372439         2.061133         1.588990
 H         5.091664        -1.375063         1.633108
 H         5.356105         0.370945         1.697400
 H         4.060629        -0.372468         2.759506
 H         2.520048        -1.776995        -0.150415
 H         1.534028        -1.708259         1.408057
 H        -0.407009        -0.252558         0.974075
 H        -0.356660         0.917504        -0.326170
 H        -0.536190        -0.784996        -0.670022
 H         4.088745         1.012124        -0.923902
 H         1.720270         2.904856         1.253175
