19
Iteration:    67
 C         4.447894        -0.345954         1.789548
 C         3.370511        -0.301949         0.843048
 C         2.201344        -1.233868         0.768095
 C         1.430026        -0.038743         0.091785
 C        -0.087480        -0.004071         0.060902
 O         2.223852         0.132685        -1.244725
 C         3.237810         0.682237        -0.441693
 C         2.416490         0.853669         0.686595
 O         2.288649         2.022575         1.380311
 H         5.291409        -0.992352         1.503983
 H         4.913487         0.622776         1.683416
 H         4.194829        -0.502733         2.834232
 H         2.235193        -2.067476         0.251071
 H         1.840329        -1.282169         1.754309
 H        -0.533761        -0.199464         1.026645
 H        -0.412871         0.987385        -0.297212
 H        -0.382600        -0.814493        -0.612078
 H         3.959102         1.376663        -0.849757
 H         3.350640         2.308535         1.435874
