19
Iteration:  1315
 C         4.614901        -0.383567         1.580526
 C         3.372158        -0.218686         0.878981
 C         2.157781        -1.226475         0.826257
 C         1.430950        -0.049599         0.025794
 C         0.009121         0.112215        -0.222406
 O         2.172450         0.090129        -1.186094
 C         3.240855         0.576844        -0.413828
 C         2.425083         0.953910         0.747237
 O         2.203983         1.940557         1.699955
 H         5.144080        -1.201249         1.065707
 H         5.200426         0.543284         1.629242
 H         4.568331        -0.797132         2.638150
 H         2.353722        -2.088007         0.154766
 H         1.845576        -1.496840         1.788934
 H        -0.495492         0.186739         0.753036
 H        -0.229405         1.078156        -0.611504
 H        -0.479174        -0.658483        -0.791864
 H         4.022194         1.224710        -0.835039
 H         1.893963         2.795952         1.411670
