19
Iteration:  1350charge 0 multiplicity 1
 C         4.693970        -0.354586         1.564860
 C         3.310428        -0.316304         0.940586
 C         2.046073        -1.223305         0.733558
 C         1.421733        -0.025209        -0.041282
 C        -0.086267         0.063015        -0.133162
 O         2.288502         0.074105        -1.240496
 C         3.275898         0.560448        -0.310856
 C         2.451012         0.978212         0.832721
 O         2.179211         2.029819         1.671421
 H         5.406531        -0.659548         0.741250
 H         5.075799         0.573678         1.787172
 H         4.760672        -1.002045         2.454589
 H         2.115441        -2.074678        -0.003745
 H         1.626692        -1.623179         1.627384
 H        -0.336948        -0.027217         0.920517
 H        -0.357311         1.053942        -0.570554
 H        -0.650572        -0.715971        -0.699609
 H         4.050481         1.162828        -0.856885
 H         2.328974         2.718323         1.166837
