19
Iteration:  2299
 C         4.704096        -0.448620         1.737948
 C         3.422504        -0.279768         0.875308
 C         2.181834        -1.222642         0.752070
 C         1.449420        -0.085397         0.082064
 C        -0.051727         0.043862        -0.188509
 O         2.080163         0.145135        -1.189778
 C         3.191870         0.573943        -0.439126
 C         2.421274         0.938821         0.850417
 O         2.243735         2.092618         1.529300
 H         5.456940        -1.050487         1.273657
 H         5.309871         0.383452         1.749499
 H         4.592918        -0.716870         2.826271
 H         2.397265        -2.124141         0.279269
 H         1.908877        -1.401076         1.747702
 H        -0.696104         0.209693         0.747926
 H        -0.284359         0.961101        -0.768108
 H        -0.513348        -0.780458        -0.731609
 H         4.042022         1.053744        -1.052411
 H         1.628731         2.678123         0.947696
