19
Iteration:  2403
 C         4.592350        -0.403153         1.783257
 C         3.382420        -0.319164         0.850930
 C         2.220600        -1.265824         0.714910
 C         1.441627        -0.084554         0.125206
 C        -0.077710         0.011106        -0.094580
 O         2.148044         0.107525        -1.254767
 C         3.199286         0.663465        -0.471392
 C         2.446683         0.958861         0.751146
 O         2.326224         2.126015         1.559480
 H         5.085753        -1.422906         1.863369
 H         5.238969         0.545957         1.557754
 H         4.328312        -0.308378         2.847725
 H         2.258555        -2.247915         0.080375
 H         1.772338        -1.577677         1.736869
 H        -0.540069        -0.200443         0.839642
 H        -0.502746         0.962112        -0.431209
 H        -0.466254        -0.721275        -0.789444
 H         3.960167         1.248330        -1.045073
 H         1.679513         2.519099         1.039866
