19
Iteration:  3344charge 0 multiplicity 1
 C         4.668593        -0.313213         1.582518
 C         3.253279        -0.199012         0.966371
 C         2.217553        -1.274295         0.714395
 C         1.371325        -0.034286         0.027270
 C        -0.095961         0.062591        -0.134766
 O         2.239215         0.027628        -1.156078
 C         3.258558         0.570554        -0.355912
 C         2.361290         0.945664         0.794423
 O         2.291900         2.003641         1.573685
 H         5.280022        -1.020725         1.039858
 H         5.090346         0.627100         1.600056
 H         4.586450        -0.476031         2.660358
 H         2.356765        -2.113448         0.111541
 H         1.738022        -1.574371         1.641397
 H        -0.569099         0.216519         0.880424
 H        -0.336768         0.858161        -0.955085
 H        -0.493589        -0.925164        -0.459404
 H         4.127299         1.100083        -0.881374
 H         2.165853         2.964860         1.046757
