19
Iteration:  1487charge 0 multiplicity 1
 C         4.597036        -0.312059         1.586302
 C         3.311258        -0.222900         0.844701
 C         2.247462        -1.322963         0.779979
 C         1.389974        -0.144693         0.091846
 C        -0.020066         0.148243        -0.285563
 O         2.163453         0.104421        -1.148919
 C         3.241902         0.600799        -0.424086
 C         2.369204         0.951311         0.832365
 O         2.304432         1.981108         1.731764
 H         5.024749        -1.228792         1.462357
 H         5.445826         0.351429         1.235208
 H         4.431095        -0.105585         2.625554
 H         2.267003        -2.106456        -0.012834
 H         1.866019        -1.679348         1.795850
 H        -0.703544         0.211107         0.613042
 H        -0.041103         1.079112        -0.865394
 H        -0.580397        -0.610030        -0.900590
 H         4.126434         0.958593        -1.011575
 H         1.895868         2.643783         1.130919
