19
Iteration:  3749
 C         4.653538        -0.392341         1.714459
 C         3.333563        -0.229200         0.902033
 C         2.139715        -1.249063         0.818954
 C         1.444702         0.006990        -0.002349
 C        -0.086704        -0.040453        -0.041677
 O         2.173197         0.045236        -1.276951
 C         3.278497         0.653401        -0.567443
 C         2.516110         1.083475         0.698031
 O         2.234421         2.042403         1.655188
 H         5.190878        -1.356503         1.462693
 H         5.356993         0.308186         1.620972
 H         4.416932        -0.546214         2.823747
 H         2.165298        -2.188075         0.234933
 H         1.708866        -1.417978         1.892910
 H        -0.523933        -0.159994         0.998780
 H        -0.563880         0.796768        -0.615402
 H        -0.638053        -0.914351        -0.479702
 H         4.253979         0.781193        -1.099489
 H         1.621678         2.567788         1.331439
