19
Iteration:  1852charge 0 multiplicity 1
 C         4.591418        -0.227152         1.516298
 C         3.242638        -0.244010         0.945443
 C         2.112099        -1.195379         0.749095
 C         1.396236        -0.017943         0.032414
 C        -0.078539         0.006832        -0.212399
 O         2.225611         0.048641        -1.241356
 C         3.268323         0.577547        -0.395545
 C         2.442558         0.941137         0.813377
 O         2.358490         1.923621         1.714553
 H         5.077296        -1.225531         1.496688
 H         5.172738         0.551872         1.163058
 H         4.523199         0.080433         2.636764
 H         2.422657        -2.039159         0.192753
 H         1.732245        -1.357127         1.702250
 H        -0.546818        -0.169572         0.815892
 H        -0.600382         0.975852        -0.280783
 H        -0.395072        -0.840364        -0.855479
 H         4.298272         0.845302        -0.626841
 H         2.133926         2.782525         1.293001
