19
Iteration:   524
 C         4.588288        -0.468532         1.663255
 C         3.324634        -0.275737         0.916889
 C         2.193524        -1.284111         0.677823
 C         1.453290        -0.119694         0.078019
 C        -0.102741         0.037510        -0.115297
 O         2.245101         0.154848        -1.190344
 C         3.250513         0.641958        -0.385471
 C         2.425048         0.959316         0.837929
 O         2.248515         2.122099         1.519748
 H         5.096212        -1.320847         1.281228
 H         5.153514         0.435178         1.485874
 H         4.475099        -0.468623         2.739005
 H         2.522564        -2.251127         0.228076
 H         1.657674        -1.532731         1.668581
 H        -0.631576         0.087334         0.883503
 H        -0.366024         0.987261        -0.557271
 H        -0.509501        -0.864599        -0.603804
 H         4.112537         1.060939        -0.938997
 H         1.863230         2.809548         0.958863
