19
Iteration:  3029charge 0 multiplicity 1
 C         4.650183        -0.201099         1.622248
 C         3.276863        -0.227561         0.905475
 C         2.189597        -1.306120         0.829039
 C         1.343831        -0.100909         0.045526
 C        -0.132609         0.011187        -0.279240
 O         2.140692         0.080798        -1.122365
 C         3.276117         0.560197        -0.391146
 C         2.428095         0.906116         0.795458
 O         2.377471         2.030076         1.626298
 H         5.114357        -1.242187         1.302732
 H         5.252197         0.635681         1.049273
 H         4.793071        -0.072071         2.691735
 H         2.537816        -2.126846         0.123811
 H         1.702151        -1.526070         1.807019
 H        -0.852518        -0.118027         0.572337
 H        -0.420011         1.094078        -0.577495
 H        -0.381486        -0.613320        -1.112398
 H         4.248992         0.877443        -0.935859
 H         2.186838         2.869257         1.190731
