19
Iteration:  1092charge 0 multiplicity 1
 C         4.532488        -0.435904         1.812624
 C         3.331766        -0.272917         0.878193
 C         2.292377        -1.350783         0.624091
 C         1.392409        -0.066829         0.036893
 C        -0.095733         0.033093        -0.059583
 O         2.195331         0.155327        -1.234420
 C         3.174414         0.700615        -0.440207
 C         2.405179         0.909666         0.802967
 O         2.345105         2.100414         1.569877
 H         5.130164        -1.077682         1.158218
 H         5.396311         0.431338         1.754527
 H         4.434762        -0.761819         2.850074
 H         2.472930        -2.148107        -0.083571
 H         1.729813        -1.619709         1.602782
 H        -0.410748        -0.027031         0.954817
 H        -0.454518         1.032087        -0.435645
 H        -0.670954        -0.742950        -0.595534
 H         4.002051         1.158387        -0.958353
 H         2.188230         2.721841         1.018150
