19
Iteration:  1458charge 0 multiplicity 1
 C         4.705830        -0.338062         1.700811
 C         3.347453        -0.284703         0.907217
 C         2.090485        -1.198704         0.715086
 C         1.411922        -0.037698         0.026830
 C        -0.098681        -0.037973        -0.162809
 O         2.167557         0.202875        -1.272119
 C         3.259145         0.573635        -0.415504
 C         2.435733         0.919222         0.807442
 O         2.305224         1.963759         1.699215
 H         5.058070        -1.455088         1.729666
 H         5.456811         0.375411         1.334596
 H         4.471996         0.093878         2.763377
 H         2.020128        -1.952396        -0.109344
 H         1.517276        -1.370363         1.563877
 H        -0.588313        -0.109202         0.784711
 H        -0.466319         0.878481        -0.635692
 H        -0.323619        -0.886612        -0.775631
 H         4.067062         1.113208        -0.865545
 H         2.260988         2.754773         0.925316
