19
Iteration:  2785
 C         4.594019        -0.338828         1.736314
 C         3.372612        -0.307847         0.910478
 C         2.220990        -1.305009         0.640917
 C         1.433136        -0.118737         0.091463
 C        -0.088112         0.044398        -0.085326
 O         2.160919         0.099179        -1.222994
 C         3.159608         0.597372        -0.391861
 C         2.433244         0.910319         0.836878
 O         2.288822         2.162481         1.522226
 H         5.356604        -1.122869         1.330836
 H         5.276619         0.493935         1.571931
 H         4.488547        -0.362286         2.860717
 H         2.398694        -2.132845        -0.121855
 H         1.727516        -1.707945         1.564937
 H        -0.678909         0.019357         0.855956
 H        -0.344357         0.942744        -0.633049
 H        -0.580450        -0.808819        -0.677249
 H         4.101025         1.157386        -0.856965
 H         2.408986         2.814081         0.945642
