19
Iteration:   641
 C         4.679092        -0.258077         1.595776
 C         3.323047        -0.293645         0.916926
 C         2.057304        -1.230764         0.836960
 C         1.340281        -0.040464         0.115757
 C        -0.004866         0.023322        -0.313164
 O         2.194493         0.138270        -1.232777
 C         3.190574         0.532202        -0.386809
 C         2.424470         0.881750         0.848437
 O         2.384146         2.025277         1.621838
 H         5.172888        -1.184498         1.154900
 H         5.343438         0.740846         1.355285
 H         4.603521        -0.375318         2.709151
 H         2.075611        -2.131119         0.283073
 H         1.592826        -1.452055         1.848655
 H        -0.518240        -0.054311         0.689663
 H        -0.253151         0.985727        -0.801110
 H        -0.241212        -0.891574        -0.889079
 H         3.992514         1.091960        -0.910748
 H         1.717476         2.539708         1.464463
