19
Iteration:  2565
 C         4.608880        -0.464779         1.740523
 C         3.369741        -0.299198         0.907063
 C         2.214054        -1.248242         0.767362
 C         1.459188        -0.039262         0.018321
 C        -0.003255         0.018637        -0.039235
 O         2.085484         0.121084        -1.249617
 C         3.241118         0.616696        -0.476490
 C         2.480876         0.978668         0.766380
 O         2.216211         2.156220         1.526447
 H         5.315624        -1.328348         1.512936
 H         5.263556         0.428553         1.727270
 H         4.528921        -0.814921         2.844614
 H         2.329885        -2.217730         0.358062
 H         1.848419        -1.438096         1.787103
 H        -0.465883         0.067716         0.963347
 H        -0.393222         0.816755        -0.780136
 H        -0.384545        -0.923772        -0.718391
 H         4.136686         1.006657        -0.976846
 H         1.404147         2.484144         1.133220
