19
Iteration:   354charge 0 multiplicity 1
 C         4.662260        -0.594830         1.710364
 C         3.345015        -0.201934         1.017119
 C         2.195785        -1.215446         0.813599
 C         1.500023        -0.074910         0.010521
 C         0.053730         0.078942         0.006022
 O         2.218592         0.156008        -1.227146
 C         3.203987         0.643950        -0.473917
 C         2.479616         0.973688         0.731494
 O         1.965516         2.079684         1.364317
 H         5.084510        -1.415932         1.096390
 H         5.433486         0.117499         1.931927
 H         4.361372        -1.043977         2.656891
 H         2.359350        -2.199980         0.194777
 H         1.524364        -1.465141         1.694434
 H        -0.146668         0.135930         1.095903
 H        -0.161588         1.077350        -0.371644
 H        -0.600418        -0.655337        -0.461722
 H         4.029636         0.901568        -1.147829
 H         2.734120         2.730180         1.814571
