19
Iteration:  2588
 C         4.514025        -0.456013         1.770041
 C         3.373281        -0.126836         0.844911
 C         2.243799        -1.187987         0.717819
 C         1.422590        -0.073669         0.072226
 C        -0.076142        -0.055934        -0.003258
 O         2.172146         0.048400        -1.223693
 C         3.268064         0.629462        -0.502372
 C         2.407179         1.023588         0.714177
 O         2.344986         2.050414         1.551206
 H         4.902673        -1.482605         1.726820
 H         5.416491         0.262573         1.760909
 H         4.135615        -0.452820         2.841346
 H         2.396055        -1.994540         0.046035
 H         1.887538        -1.620545         1.647615
 H        -0.555073        -0.083763         0.985196
 H        -0.331583         0.939860        -0.486957
 H        -0.613904        -0.723724        -0.802169
 H         3.995616         1.155435        -1.032538
 H         1.525828         2.649199         1.199048
