19
Iteration:  1635
 C         4.641967        -0.361794         1.587743
 C         3.319155        -0.222642         0.896457
 C         2.109302        -1.182145         0.807451
 C         1.419379         0.031550         0.018018
 C        -0.094371        -0.082140        -0.168728
 O         2.150963         0.198010        -1.251417
 C         3.289793         0.595275        -0.390983
 C         2.447689         0.921295         0.761896
 O         2.333139         1.962795         1.674510
 H         5.187938        -1.360618         1.619866
 H         5.324351         0.456413         1.428688
 H         4.349547        -0.332695         2.665509
 H         2.115701        -2.175431         0.280391
 H         1.676837        -1.397411         1.804200
 H        -0.635854        -0.486815         0.686503
 H        -0.728611         0.653897        -0.634219
 H        -0.153469        -0.971686        -0.784888
 H         4.192303         1.040327        -0.838816
 H         2.191747         2.873154         1.352617
