19
Iteration:  3705
 C         4.758130        -0.326004         1.597561
 C         3.322803        -0.256367         0.991212
 C         2.234378        -1.337237         0.798094
 C         1.354124        -0.124909         0.093437
 C        -0.165047         0.059945        -0.231988
 O         2.144946         0.094855        -1.153997
 C         3.177992         0.611654        -0.373771
 C         2.396489         0.951048         0.830057
 O         2.338417         2.118588         1.523954
 H         5.361533        -1.154197         1.140559
 H         5.321114         0.521966         1.459501
 H         4.690471        -0.641411         2.687320
 H         2.500916        -2.210038         0.153891
 H         1.673678        -1.694358         1.741239
 H        -0.827307        -0.085876         0.653438
 H        -0.261439         1.042430        -0.745421
 H        -0.409738        -0.774029        -0.966507
 H         4.085244         1.151565        -0.846096
 H         2.041744         2.752595         0.848587
