19
Iteration:  1289
 C         4.617240        -0.448953         1.727918
 C         3.459730        -0.289381         0.797822
 C         2.174087        -1.267018         0.794961
 C         1.426197        -0.054525         0.012899
 C        -0.088867         0.047353        -0.140074
 O         2.124100         0.168972        -1.240222
 C         3.203411         0.720839        -0.427873
 C         2.507252         0.918774         0.772068
 O         2.263877         1.987485         1.651813
 H         5.093651        -1.433452         1.748473
 H         5.368286         0.462532         1.521709
 H         4.346999        -0.315692         2.772974
 H         2.352492        -2.081203         0.123613
 H         1.863282        -1.588656         1.837935
 H        -0.840552         0.135081         0.646980
 H        -0.293941         0.986015        -0.691495
 H        -0.355441        -0.709306        -0.885906
 H         4.058154         1.059415        -0.981429
 H         1.473674         2.715070         1.361358
