19
Iteration:    88
 C         4.692828        -0.314472         1.750746
 C         3.349392        -0.233622         0.944886
 C         2.139575        -1.281048         0.696495
 C         1.418420        -0.077773        -0.018745
 C        -0.079444         0.047942        -0.049691
 O         2.096700         0.048490        -1.238875
 C         3.300382         0.482438        -0.485969
 C         2.486514         0.972306         0.747618
 O         2.169824         2.132721         1.587982
 H         5.349039        -1.127876         1.539043
 H         5.305981         0.598515         1.676323
 H         4.390501        -0.402357         2.781537
 H         2.274328        -1.985495        -0.032218
 H         1.698574        -1.602041         1.614315
 H        -0.510808         0.011585         0.948376
 H        -0.325304         1.031782        -0.496998
 H        -0.481440        -0.788821        -0.636264
 H         4.210155         0.632562        -1.059021
 H         2.980770         2.842200         1.543509
