19
Iteration:  1335charge 0 multiplicity 1
 C         4.723806        -0.379991         1.541055
 C         3.263477        -0.228961         0.994844
 C         2.147872        -1.221748         0.683855
 C         1.382182        -0.052167         0.048622
 C        -0.136397         0.120296        -0.144957
 O         2.302742         0.018669        -1.253066
 C         3.294806         0.613836        -0.439178
 C         2.412529         0.926225         0.778965
 O         2.173286         2.007848         1.745846
 H         5.358910        -0.955287         0.887504
 H         5.069073         0.743548         1.770264
 H         4.802036        -0.985527         2.514822
 H         2.309370        -2.154899         0.169402
 H         1.557042        -1.295097         1.599177
 H        -0.666130         0.138370         0.817476
 H        -0.433338         1.033095        -0.598326
 H        -0.424427        -0.700464        -0.764581
 H         4.346129         0.652950        -0.707987
 H         2.261897         3.023497         1.365660
