19
Iteration:  1338charge 0 multiplicity 1
 C         4.711084        -0.354993         1.547545
 C         3.300488        -0.243470         1.005361
 C         2.116398        -1.217282         0.669543
 C         1.378632        -0.046092         0.039804
 C        -0.128763         0.107845        -0.148830
 O         2.317234         0.025248        -1.248734
 C         3.269980         0.592973        -0.439473
 C         2.430012         0.917339         0.789352
 O         2.170264         2.023479         1.738953
 H         5.329078        -0.945793         0.813010
 H         5.048207         0.615500         1.782656
 H         4.858349        -0.994782         2.479136
 H         2.277544        -2.187657         0.134911
 H         1.609515        -1.299559         1.580900
 H        -0.638292         0.125252         0.815320
 H        -0.475321         1.070151        -0.532501
 H        -0.531090        -0.742508        -0.721756
 H         4.369881         0.720325        -0.643444
 H         2.275090         3.038989         1.384677
