19
Iteration:    54charge 0 multiplicity 1
 C         4.446095        -0.353179         1.832789
 C         3.398094        -0.260772         0.724386
 C         2.157007        -1.249099         0.772137
 C         1.418031        -0.174534         0.051458
 C        -0.023406        -0.056060         0.090767
 O         2.171407         0.166781        -1.287430
 C         3.276238         0.676526        -0.444896
 C         2.383631         0.911025         0.715253
 O         2.351710         2.113299         1.388305
 H         5.173508        -1.078676         1.689787
 H         4.906937         0.603937         2.206440
 H         3.855529        -0.695122         2.668534
 H         2.132878        -2.227373         0.509470
 H         1.861328        -1.329950         1.817500
 H        -0.391119        -0.311213         1.110416
 H        -0.361306         0.941717        -0.205938
 H        -0.534387        -0.709900        -0.639846
 H         4.027573         1.335497        -0.837722
 H         3.150447         2.325582         1.634749
