19
Iteration:  3888charge 0 multiplicity 1
 C         4.598319        -0.434981         1.608935
 C         3.366271        -0.170691         0.895828
 C         2.229518        -1.132688         0.901857
 C         1.346093        -0.045591         0.114952
 C        -0.150767        -0.036130        -0.185282
 O         2.140362         0.037885        -1.205064
 C         3.300240         0.674324        -0.447899
 C         2.513201         1.005974         0.725314
 O         2.269153         1.986753         1.592083
 H         5.208285        -1.223795         1.138494
 H         5.235974         0.605555         1.664087
 H         4.478761        -0.783647         2.665997
 H         2.451264        -2.064638         0.299255
 H         1.944014        -1.240991         1.958791
 H        -0.809005        -0.464733         0.532191
 H        -0.460319         0.868389        -0.719981
 H        -0.338954        -0.857234        -1.000526
 H         4.262129         0.871097        -0.791455
 H         1.898618         2.834245         1.191976
