19
Iteration:  4960charge 0 multiplicity 1
 C         4.579831        -0.350483         1.706785
 C         3.356259        -0.243424         0.877149
 C         2.204097        -1.282144         0.730051
 C         1.460459        -0.088485         0.059515
 C        -0.023374        -0.026453        -0.003830
 O         2.171060         0.152832        -1.233967
 C         3.222258         0.708794        -0.430375
 C         2.389443         0.929268         0.768080
 O         2.262907         2.001004         1.542140
 H         5.163401        -1.151280         1.254939
 H         5.134236         0.630006         1.570717
 H         4.479257        -0.545429         2.794134
 H         2.164671        -2.182619         0.054405
 H         1.905124        -1.604963         1.664806
 H        -0.433572         0.457671         0.918055
 H        -0.340310         0.590473        -0.844099
 H        -0.385575        -1.028160        -0.294834
 H         4.083053         1.085045        -0.944300
 H         1.878015         2.782532         0.900373
