19
Iteration:  4645
 C         4.640921        -0.484625         1.684695
 C         3.347345        -0.214403         0.854902
 C         2.217345        -1.235397         0.694140
 C         1.428426        -0.057097         0.080931
 C        -0.109963        -0.094745        -0.023506
 O         2.224167         0.117856        -1.265639
 C         3.244606         0.696859        -0.390771
 C         2.409216         0.932248         0.809486
 O         2.189278         2.157956         1.545155
 H         5.172469        -1.299480         1.291252
 H         5.385766         0.332669         1.558611
 H         4.343552        -0.681668         2.662468
 H         2.437265        -2.174957         0.248070
 H         1.895911        -1.401741         1.727589
 H        -0.430804        -0.480444         0.930996
 H        -0.476278         0.909937        -0.182634
 H        -0.437171        -0.806544        -0.790114
 H         4.213169         1.133765        -0.880959
 H         2.002150         2.807623         0.933988
