19
Iteration:  3648charge 0 multiplicity 1
 C         4.650754        -0.440250         1.693753
 C         3.358807        -0.290681         0.839035
 C         2.136725        -1.099074         0.828384
 C         1.450170        -0.038320         0.014465
 C        -0.110601        -0.141569         0.016159
 O         2.184823         0.121774        -1.258796
 C         3.247653         0.652044        -0.488954
 C         2.549672         0.998325         0.727331
 O         2.179379         2.038339         1.514860
 H         5.379810        -1.151245         1.358750
 H         5.150459         0.488387         2.064774
 H         4.356033        -0.800936         2.713203
 H         2.134455        -2.158498         0.444609
 H         1.689759        -1.007461         1.862562
 H        -0.645783        -0.379189         0.921129
 H        -0.466040         0.905098        -0.242946
 H        -0.765402        -0.751606        -0.801113
 H         4.091518         1.091189        -0.989765
 H         2.708302         2.776538         1.490080
