19
Iteration:  2965charge 0 multiplicity 1
 C         4.537236        -0.485390         1.724782
 C         3.418546        -0.232919         0.842810
 C         2.203530        -1.119802         0.888657
 C         1.462836        -0.015642         0.074250
 C        -0.070666        -0.044769         0.021904
 O         2.204271         0.132577        -1.300930
 C         3.284547         0.621270        -0.512434
 C         2.502826         0.992009         0.687559
 O         2.104240         1.979743         1.537046
 H         5.154491        -1.189382         1.235770
 H         5.094175         0.502346         2.025230
 H         4.478420        -0.994553         2.638989
 H         2.362995        -2.065287         0.313494
 H         1.784663        -1.376423         1.860286
 H        -0.515258         0.304229         1.024024
 H        -0.484270         0.851916        -0.653609
 H        -0.387186        -1.050159        -0.436877
 H         4.191593         1.058224        -1.088534
 H         2.174066         2.844850         1.059072
