19
Iteration:  3397
 C         4.668014        -0.466265         1.682212
 C         3.428052        -0.182236         0.873202
 C         2.205538        -1.149515         0.855211
 C         1.383738         0.017413         0.122281
 C        -0.101690         0.043563        -0.103274
 O         2.181374         0.060416        -1.224634
 C         3.323132         0.643539        -0.469161
 C         2.460640         0.969991         0.712176
 O         2.145351         1.947318         1.545652
 H         5.202779        -1.357297         1.321320
 H         5.471351         0.329066         1.467136
 H         4.445033        -0.635613         2.811948
 H         2.209950        -2.056800         0.262970
 H         1.795636        -1.460799         1.832950
 H        -0.676489         0.079063         0.798057
 H        -0.318050         0.895955        -0.743401
 H        -0.532758        -0.797965        -0.602959
 H         4.266698         1.134630        -0.928532
 H         1.359980         2.488440         1.064636
