19
Iteration:  2378charge 0 multiplicity 1
 C         4.603074        -0.369339         1.684849
 C         3.358980        -0.206470         0.879792
 C         2.207278        -1.153148         0.809272
 C         1.455437        -0.061691         0.114281
 C        -0.056906        -0.023329        -0.107797
 O         2.126321         0.157225        -1.242874
 C         3.269360         0.559736        -0.466584
 C         2.440666         0.976063         0.736631
 O         2.240761         1.962653         1.590982
 H         5.065131        -1.376067         1.426008
 H         5.191226         0.505005         1.741674
 H         4.378582        -0.735978         2.756909
 H         2.367439        -2.134810         0.377148
 H         1.778028        -1.339047         1.806963
 H        -0.697426         0.051258         0.758964
 H        -0.280451         0.857367        -0.717240
 H        -0.476020        -0.784108        -0.822333
 H         4.040342         0.849321        -1.105556
 H         2.283587         2.788649         0.896136
