19
Iteration:   996
 C         4.664738        -0.363384         1.552113
 C         3.279001        -0.284931         0.938348
 C         2.168135        -1.223800         0.799973
 C         1.368864        -0.050767         0.116658
 C        -0.063088         0.059139        -0.288638
 O         2.224547         0.031626        -1.192762
 C         3.160528         0.619445        -0.402460
 C         2.471970         0.958619         0.798641
 O         2.309056         2.020208         1.701844
 H         5.322817        -1.159922         1.238938
 H         5.258256         0.493799         1.288251
 H         4.668774        -0.390088         2.645498
 H         2.313541        -2.009967        -0.033156
 H         1.792544        -1.714507         1.735417
 H        -0.648282         0.191226         0.628098
 H        -0.165627         1.072971        -0.803954
 H        -0.637533        -0.591717        -0.990437
 H         4.040801         1.026938        -0.835233
 H         1.775698         2.932311         1.308374
