19
Iteration:  2416charge 0 multiplicity 1
 C         4.568782        -0.379041         1.787288
 C         3.374016        -0.232538         0.880849
 C         2.162515        -1.263604         0.651949
 C         1.368383        -0.113037         0.027752
 C        -0.157921        -0.034765         0.011296
 O         2.241372         0.063855        -1.242855
 C         3.219103         0.678094        -0.446773
 C         2.465219         0.949749         0.790137
 O         2.354860         2.115200         1.516445
 H         5.072341        -1.338554         1.620934
 H         5.509138         0.299623         1.480038
 H         4.254799        -0.184104         2.804717
 H         2.425469        -2.092990        -0.139852
 H         1.786772        -1.665902         1.645801
 H        -0.718665        -0.286621         0.952044
 H        -0.292098         1.019859        -0.260102
 H        -0.461473        -0.578941        -0.850642
 H         4.191627         1.093385        -0.886207
 H         1.555332         2.870268         1.314521
