19
Iteration:   501charge 0 multiplicity 1
 C         4.697303        -0.456177         1.631868
 C         3.376824        -0.175182         0.898028
 C         2.122837        -1.103102         0.878327
 C         1.411958        -0.060766        -0.032211
 C        -0.112685        -0.016998        -0.245271
 O         2.208852         0.022817        -1.272775
 C         3.284974         0.590444        -0.454087
 C         2.354149         1.000884         0.761753
 O         2.260417         2.034535         1.748182
 H         5.037941        -1.379738         1.267840
 H         5.479812         0.320655         1.651844
 H         4.426548        -0.561531         2.659620
 H         2.326502        -2.089904         0.375278
 H         1.679846        -1.381058         1.921481
 H        -0.529037        -0.047794         0.790483
 H        -0.481188         0.955995        -0.578124
 H        -0.555554        -0.908884        -0.727333
 H         4.048727         1.107677        -1.028437
 H         2.293158         2.976132         1.292025
