19
Iteration:  4758
 C         4.659637        -0.296524         1.649946
 C         3.331412        -0.191046         0.833123
 C         2.210432        -1.257505         0.709097
 C         1.415121        -0.122229         0.031005
 C        -0.078706        -0.019353        -0.124495
 O         2.151011         0.088697        -1.240972
 C         3.278181         0.650874        -0.363187
 C         2.390355         0.934883         0.818532
 O         2.293850         2.029962         1.642292
 H         5.433379        -1.106408         1.363455
 H         5.164295         0.616871         1.538275
 H         4.396281        -0.717245         2.667729
 H         2.236053        -2.065190         0.027502
 H         1.656362        -1.508465         1.694999
 H        -0.479722         0.168533         0.938003
 H        -0.313749         0.792325        -0.881662
 H        -0.711117        -0.956735        -0.218293
 H         4.152705         0.928105        -0.816473
 H         1.732836         2.819936         1.109493
