19
Iteration:  3248
 C         4.557404        -0.385948         1.651321
 C         3.301560        -0.204091         0.964831
 C         2.239731        -1.281999         0.699267
 C         1.429275        -0.129364         0.035873
 C        -0.061661        -0.046781        -0.092814
 O         2.165112         0.158229        -1.185557
 C         3.242771         0.534974        -0.382866
 C         2.409290         0.975011         0.803239
 O         2.353070         2.164828         1.504832
 H         5.137172        -1.321784         1.211583
 H         5.140944         0.555730         1.595103
 H         4.386714        -0.352222         2.711894
 H         2.577419        -2.141083         0.004469
 H         1.624049        -1.679430         1.557449
 H        -0.545962        -0.441203         0.827781
 H        -0.345106         1.058683        -0.154672
 H        -0.531799        -0.564062        -0.901611
 H         4.158948         0.899360        -0.879093
 H         1.550442         2.540882         1.264976
