19
Iteration:   108
 C         4.690639        -0.368293         1.569990
 C         3.335711        -0.278888         0.926922
 C         2.203753        -1.213659         0.807287
 C         1.422791        -0.033847         0.120259
 C        -0.003914         0.135852        -0.185761
 O         2.189069        -0.029746        -1.213452
 C         3.266917         0.408801        -0.478043
 C         2.398102         1.021664         0.758146
 O         2.076300         2.133594         1.689273
 H         5.133269        -1.269825         1.244286
 H         5.331573         0.493480         1.159065
 H         4.734845        -0.345057         2.651398
 H         2.454572        -2.174645         0.142558
 H         1.696134        -1.496721         1.789110
 H        -0.585531         0.317163         0.737298
 H        -0.147906         1.042858        -0.795753
 H        -0.382516        -0.765689        -0.696769
 H         4.147085         0.800969        -0.950573
 H         2.453165         2.931613         1.379509
