19
Iteration:  1250charge 0 multiplicity 1
 C         4.508193        -0.413027         1.686736
 C         3.280781        -0.306823         0.853853
 C         2.178853        -1.218710         0.648620
 C         1.427671        -0.050249        -0.027984
 C        -0.039255        -0.084371        -0.028402
 O         2.221713         0.160346        -1.297340
 C         3.250154         0.685687        -0.372199
 C         2.403858         0.999322         0.775989
 O         2.330679         2.054842         1.665850
 H         4.756844        -1.484508         1.809191
 H         5.374855         0.157460         1.440352
 H         4.250726        -0.083309         2.742387
 H         2.361292        -2.028197        -0.149189
 H         1.682521        -1.712423         1.450210
 H        -0.210833        -0.395426         1.062611
 H        -0.491401         0.922006        -0.211777
 H        -0.524748        -0.913462        -0.599832
 H         4.209942         1.121311        -0.603215
 H         2.488896         2.895924         1.210522
