19
Iteration:  4170
 C         4.628476        -0.366898         1.706584
 C         3.404737        -0.195037         0.913546
 C         2.215483        -1.283745         0.721278
 C         1.439508        -0.085605         0.025372
 C        -0.087733         0.074341        -0.026374
 O         2.147632         0.085084        -1.236390
 C         3.290670         0.549570        -0.420864
 C         2.426469         0.987869         0.759092
 O         2.189093         2.042620         1.548210
 H         5.218245        -1.169050         1.259157
 H         5.224291         0.614092         1.805217
 H         4.390800        -0.731313         2.691384
 H         2.493624        -2.156598         0.093408
 H         1.688281        -1.500827         1.612091
 H        -0.477452         0.197686         0.989051
 H        -0.396566         0.923540        -0.689148
 H        -0.458964        -0.926799        -0.405437
 H         4.095120         1.082891        -0.986923
 H         1.881615         2.716182         0.989993
