19
Iteration:   424charge 0 multiplicity 1
 C         4.549934        -0.301234         1.713123
 C         3.267565        -0.234446         0.970241
 C         2.188919        -1.335530         0.671410
 C         1.397047        -0.109783         0.069116
 C        -0.069622         0.076969        -0.107996
 O         2.241164         0.101222        -1.221601
 C         3.158799         0.589167        -0.432978
 C         2.386220         0.916634         0.734199
 O         2.412358         2.074095         1.597341
 H         5.110442        -1.100828         1.287858
 H         5.122767         0.690180         1.734407
 H         4.327807        -0.538592         2.756257
 H         2.471527        -2.076961        -0.084761
 H         1.824693        -1.867498         1.646891
 H        -0.510014        -0.068593         0.892058
 H        -0.413527         1.069542        -0.511812
 H        -0.422405        -0.804784        -0.709705
 H         4.015978         1.079075        -0.839259
 H         2.331253         2.850513         0.905299
