19
Iteration:  1249
 C         4.504711        -0.420567         1.680756
 C         3.282282        -0.304379         0.854128
 C         2.176508        -1.232840         0.650494
 C         1.422304        -0.049035        -0.020557
 C        -0.039500        -0.084792        -0.037328
 O         2.228608         0.163778        -1.297785
 C         3.248063         0.689090        -0.371205
 C         2.408031         0.998768         0.765084
 O         2.330304         2.064352         1.668985
 H         4.755013        -1.464718         1.848596
 H         5.397017         0.201562         1.449533
 H         4.261429        -0.089830         2.742792
 H         2.350725        -2.030678        -0.129116
 H         1.680871        -1.708390         1.448081
 H        -0.196393        -0.380859         1.056756
 H        -0.515871         0.891312        -0.164413
 H        -0.531405        -0.905695        -0.569064
 H         4.187905         1.137697        -0.606945
 H         2.498931         2.809267         1.213948
