19
Iteration:  3673
 C         4.637053        -0.350663         1.578736
 C         3.291773        -0.232636         0.877404
 C         2.188779        -1.263686         0.802250
 C         1.450833        -0.019086         0.070890
 C        -0.033350        -0.011906        -0.104299
 O         2.157043         0.031996        -1.197867
 C         3.223511         0.551405        -0.392504
 C         2.382681         1.006722         0.780903
 O         2.251108         2.135589         1.566013
 H         5.331694        -1.081617         1.051319
 H         5.170092         0.483506         1.834499
 H         4.426484        -0.828783         2.593527
 H         2.409547        -2.171562         0.194413
 H         1.597981        -1.448161         1.779497
 H        -0.549125        -0.531534         0.723457
 H        -0.646258         0.845138        -0.447741
 H        -0.243768        -0.733240        -0.851446
 H         4.133901         1.065569        -0.892742
 H         2.995819         2.821566         1.257504
