19
Iteration:  4999charge 0 multiplicity 1
 C         4.649109        -0.445873         1.675907
 C         3.367115        -0.221998         0.904530
 C         2.280350        -1.281144         0.718855
 C         1.378690        -0.052203         0.116899
 C        -0.084143        -0.033173        -0.100369
 O         2.146045         0.076059        -1.202003
 C         3.221020         0.728215        -0.424872
 C         2.381267         0.964036         0.807269
 O         2.248790         2.104903         1.546527
 H         5.185749        -1.118017         0.974985
 H         5.395520         0.310859         1.611690
 H         4.578546        -0.581301         2.768042
 H         2.573159        -2.013404        -0.047580
 H         1.903676        -1.637898         1.743785
 H        -0.683578         0.087345         0.762965
 H        -0.407141         0.672858        -0.919335
 H        -0.427374        -1.043293        -0.442912
 H         4.141114         0.971861        -0.900558
 H         1.956927         2.825165         1.055232
