19
Iteration:  3688charge 0 multiplicity 1
 C         4.685129        -0.388336         1.609834
 C         3.349116        -0.252819         0.989812
 C         2.173995        -1.222789         0.739685
 C         1.355936        -0.161829         0.064880
 C        -0.086160        -0.049507        -0.194616
 O         2.129138         0.026465        -1.179068
 C         3.196062         0.601188        -0.403606
 C         2.469079         0.962501         0.825577
 O         2.269022         2.205939         1.590405
 H         5.304470        -1.024286         0.958876
 H         4.998410         0.752459         1.553811
 H         4.738842        -0.643085         2.654557
 H         2.323298        -2.041412         0.036050
 H         1.865528        -1.640414         1.659175
 H        -0.655739        -0.017574         0.748096
 H        -0.169209         1.026646        -0.340464
 H        -0.408654        -0.606301        -1.088924
 H         4.041661         0.861329        -0.928371
 H         2.724007         3.009449         1.087170
