19
Iteration:  4864
 C         4.759582        -0.318818         1.639318
 C         3.374104        -0.303988         0.972106
 C         2.234801        -1.292534         0.812689
 C         1.403528        -0.082877         0.020233
 C        -0.145296        -0.011760        -0.191019
 O         2.066258         0.164894        -1.209038
 C         3.268501         0.601232        -0.413917
 C         2.425336         0.947664         0.799057
 O         2.246275         2.066258         1.583941
 H         5.337066        -1.119406         1.189804
 H         5.295224         0.689262         1.603706
 H         4.627058        -0.492866         2.714929
 H         2.362966        -2.215012         0.218811
 H         1.804321        -1.579685         1.805084
 H        -0.705383        -0.390984         0.680723
 H        -0.512033         0.942524        -0.403346
 H        -0.236813        -0.551339        -1.095149
 H         4.058242         1.143892        -0.843140
 H         1.977267         2.668386         0.964654
