19
Iteration:    98
 C         4.731089        -0.347686         1.694884
 C         3.352329        -0.253297         0.934267
 C         2.170899        -1.240794         0.714557
 C         1.438202        -0.069029         0.057234
 C        -0.020731         0.083239        -0.111917
 O         2.106084         0.017350        -1.245365
 C         3.295373         0.381878        -0.470483
 C         2.417286         1.026650         0.710983
 O         2.093301         2.185642         1.701376
 H         5.258051        -1.186249         1.367326
 H         5.337760         0.572098         1.406459
 H         4.654204        -0.335036         2.765066
 H         2.340132        -2.124130         0.028273
 H         1.654223        -1.653731         1.607507
 H        -0.544758         0.159704         0.846518
 H        -0.167617         0.999561        -0.717558
 H        -0.485045        -0.705780        -0.723748
 H         4.168405         0.493100        -1.090493
 H         2.827264         2.821265         1.357436
