19
Iteration:   642charge 0 multiplicity 1
 C         4.682921        -0.255409         1.591291
 C         3.312051        -0.302030         0.923916
 C         2.055454        -1.234719         0.833036
 C         1.341933        -0.042504         0.122071
 C         0.004143         0.026728        -0.317472
 O         2.188812         0.133309        -1.236224
 C         3.192322         0.545477        -0.383275
 C         2.421030         0.883233         0.846879
 O         2.389641         2.027431         1.623424
 H         5.170610        -1.175499         1.176060
 H         5.358714         0.757864         1.323771
 H         4.588043        -0.376843         2.698105
 H         2.070941        -2.159492         0.270429
 H         1.563562        -1.454126         1.861968
 H        -0.488334        -0.081521         0.710389
 H        -0.239982         0.968281        -0.824501
 H        -0.255728        -0.893367        -0.882186
 H         4.011044         1.104413        -0.883132
 H         1.710331         2.547328         1.452370
