19
Iteration:  2111
 C         4.615723        -0.497584         1.710861
 C         3.385352        -0.257321         0.883979
 C         2.260490        -1.211893         0.749272
 C         1.430481        -0.080768         0.079536
 C        -0.088223         0.048627        -0.063297
 O         2.153643         0.086129        -1.173535
 C         3.217650         0.661732        -0.399055
 C         2.395367         0.982748         0.722022
 O         2.268458         2.081047         1.494646
 H         5.211467        -1.223479         1.204911
 H         5.227023         0.442282         1.854859
 H         4.244379        -0.895391         2.700679
 H         2.475501        -2.083751         0.076183
 H         1.940825        -1.639809         1.692908
 H        -0.644004         0.157491         0.857723
 H        -0.330847         0.959295        -0.682980
 H        -0.452744        -0.851632        -0.609265
 H         4.062467         1.216541        -0.931009
 H         1.770507         2.758218         0.991482
