19
Iteration:  4279charge 0 multiplicity 1
 C         4.586950        -0.403707         1.753577
 C         3.360162        -0.245128         0.919220
 C         2.280577        -1.291694         0.799103
 C         1.396479        -0.071386         0.094845
 C        -0.126270        -0.094191        -0.120010
 O         2.106729         0.183157        -1.278884
 C         3.268848         0.636414        -0.468919
 C         2.450595         0.947213         0.712033
 O         2.324565         2.127832         1.558086
 H         5.079969        -1.376211         1.489670
 H         5.273489         0.403806         1.705679
 H         4.289832        -0.401077         2.817169
 H         2.507729        -2.272874         0.284365
 H         1.779401        -1.434887         1.747287
 H        -0.527791        -0.349590         0.884757
 H        -0.539056         0.908614        -0.272447
 H        -0.514831        -0.702882        -0.956795
 H         4.079315         1.062568        -0.984599
 H         1.924623         2.721669         1.027808
