19
Iteration:  2023charge 0 multiplicity 1
 C         4.590508        -0.305276         1.640212
 C         3.289040        -0.230861         0.874813
 C         2.137311        -1.200430         0.844027
 C         1.382231        -0.056770         0.018710
 C        -0.086585         0.007530        -0.172025
 O         2.182702         0.014366        -1.235177
 C         3.270474         0.603310        -0.446942
 C         2.431506         0.972061         0.722518
 O         2.394390         2.012773         1.726979
 H         5.126149        -1.179327         1.373618
 H         5.305863         0.477754         1.323536
 H         4.441965        -0.277350         2.714057
 H         2.286491        -2.150795         0.252608
 H         1.851450        -1.433779         1.904170
 H        -0.567381        -0.199705         0.738812
 H        -0.398401         0.952858        -0.630387
 H        -0.277865        -0.655954        -0.986637
 H         4.017614         1.167595        -1.077055
 H         1.669752         2.645145         1.240403
