19
Iteration:  3082charge 0 multiplicity 1
 C         4.504669        -0.424776         1.700817
 C         3.362527        -0.164594         0.844863
 C         2.266370        -1.120844         0.804708
 C         1.413074        -0.038793        -0.012509
 C        -0.097884        -0.090277        -0.012637
 O         2.191745         0.086996        -1.224923
 C         3.267482         0.571505        -0.450958
 C         2.429365         1.019331         0.705878
 O         2.310942         2.024321         1.561136
 H         5.013167        -1.414016         1.264741
 H         5.227230         0.358628         1.971469
 H         4.236114        -0.750432         2.771625
 H         2.472586        -2.105679         0.284335
 H         1.731499        -1.303595         1.792055
 H        -0.547468        -0.506581         0.884088
 H        -0.569748         0.884455        -0.192448
 H        -0.357050        -0.668344        -0.830402
 H         4.106624         1.087404        -1.044588
 H         1.761327         2.881362         1.244122
