19
Iteration:  2395
 C         4.557625        -0.401979         1.764685
 C         3.411632        -0.282967         0.858161
 C         2.237187        -1.249474         0.764133
 C         1.411864        -0.066356         0.077474
 C        -0.014461         0.025773        -0.126505
 O         2.061930         0.131521        -1.212383
 C         3.237184         0.617938        -0.481279
 C         2.441889         0.918268         0.741468
 O         2.302795         2.085353         1.564113
 H         5.236223        -1.249239         1.661736
 H         5.387860         0.386840         1.633145
 H         4.244877        -0.350517         2.793816
 H         2.270313        -2.221978         0.166566
 H         1.797011        -1.429127         1.763094
 H        -0.423691        -0.170176         0.933458
 H        -0.434153         0.956329        -0.560905
 H        -0.260151        -0.793261        -0.788891
 H         4.089483         1.244979        -0.907204
 H         1.720132         2.682023         0.989685
