19
Iteration:  1694
 C         4.647484        -0.377750         1.652532
 C         3.379812        -0.212864         0.882833
 C         2.256833        -1.215346         0.724190
 C         1.438304        -0.141882         0.093586
 C        -0.060490         0.151813        -0.204168
 O         2.126374         0.097266        -1.144563
 C         3.210658         0.622591        -0.478342
 C         2.411406         0.924651         0.818388
 O         2.219672         1.915988         1.648298
 H         5.187754        -1.328225         1.503210
 H         5.373961         0.510131         1.395990
 H         4.365497        -0.166258         2.683817
 H         2.317346        -2.052571         0.110341
 H         2.047752        -1.374136         1.799313
 H        -0.608304         0.177734         0.748101
 H        -0.164116         1.113447        -0.715273
 H        -0.480012        -0.548515        -0.931357
 H         3.960091         1.114337        -1.137228
 H         1.911465         2.577889         1.114998
