19
Iteration:   349charge 0 multiplicity 1
 C         4.664999        -0.605433         1.717041
 C         3.373042        -0.184242         0.982158
 C         2.183190        -1.257218         0.774908
 C         1.504038        -0.047629         0.021034
 C         0.039552         0.101803         0.017271
 O         2.226646         0.095641        -1.228495
 C         3.206780         0.628173        -0.426891
 C         2.453578         0.992512         0.735078
 O         1.961515         2.118386         1.387242
 H         5.100414        -1.372361         1.033480
 H         5.460217         0.207117         1.677585
 H         4.454652        -1.115058         2.690246
 H         2.404867        -2.146344         0.262722
 H         1.596084        -1.383202         1.661321
 H        -0.242221         0.170193         1.069000
 H        -0.182582         1.052671        -0.514752
 H        -0.541978        -0.638739        -0.566541
 H         4.057915         0.988077        -0.993374
 H         2.628022         2.543166         1.777211
