19
Iteration:  3095charge 0 multiplicity 1
 C         4.596717        -0.488532         1.797755
 C         3.357737        -0.162755         0.913413
 C         2.219957        -1.197158         0.688608
 C         1.427030        -0.088817         0.057717
 C        -0.073485        -0.060574        -0.019685
 O         2.136218         0.062978        -1.312135
 C         3.271023         0.618133        -0.450559
 C         2.384572         0.969773         0.723043
 O         2.306943         2.180373         1.565888
 H         5.297306        -1.289492         1.275805
 H         5.296652         0.489774         1.790322
 H         4.140927        -0.847308         2.718030
 H         2.483019        -2.125911         0.057232
 H         1.847542        -1.463686         1.713104
 H        -0.430950        -0.356119         0.978286
 H        -0.446076         0.992046        -0.227282
 H        -0.471526        -0.754982        -0.713188
 H         4.190536         1.044903        -0.828461
 H         1.659535         2.602398         1.139410
