19
Iteration:  2572charge 0 multiplicity 1
 C         4.580512        -0.464260         1.761509
 C         3.402731        -0.269791         0.900952
 C         2.254888        -1.192979         0.745660
 C         1.434854        -0.060534         0.035923
 C        -0.003835         0.024282        -0.076223
 O         2.090369         0.099636        -1.255790
 C         3.201038         0.600737        -0.489836
 C         2.487547         0.926811         0.761218
 O         2.243045         2.160122         1.542804
 H         5.055549        -1.382568         1.342038
 H         5.296177         0.323630         1.834906
 H         4.278123        -0.519394         2.867323
 H         2.431335        -2.199151         0.200405
 H         1.764057        -1.415692         1.728146
 H        -0.455203        -0.081169         0.927506
 H        -0.380730         0.935786        -0.531048
 H        -0.225648        -0.934194        -0.434745
 H         4.149545         0.961760        -0.987939
 H         1.320210         2.649667         1.275807
