19
Iteration:  2282
 C         4.601677        -0.450063         1.696385
 C         3.405208        -0.226904         0.862307
 C         2.230964        -1.198003         0.748667
 C         1.413129        -0.060128         0.108537
 C        -0.071764         0.023082        -0.053399
 O         2.166203         0.052912        -1.207435
 C         3.268333         0.681771        -0.466322
 C         2.400933         0.943156         0.725686
 O         2.253254         2.051465         1.550366
 H         5.109393        -1.456695         1.504165
 H         5.293490         0.490827         1.762300
 H         4.144589        -0.607489         2.702927
 H         2.180961        -2.134446         0.056636
 H         1.733037        -1.495471         1.756230
 H        -0.580671        -0.048958         0.869815
 H        -0.352961         0.950374        -0.587547
 H        -0.349861        -0.739041        -0.817761
 H         4.069819         1.309158        -0.768580
 H         1.921716         2.765565         1.063279
