19
Iteration:  3904
 C         4.680307        -0.381970         1.639694
 C         3.343553        -0.231044         0.862507
 C         2.149709        -1.215773         0.782995
 C         1.434037        -0.059120         0.114651
 C        -0.080060        -0.060031        -0.203977
 O         2.168552         0.035301        -1.166375
 C         3.223017         0.583223        -0.476021
 C         2.438413         1.015338         0.797033
 O         2.276953         2.139883         1.644574
 H         5.250791        -1.263815         1.211132
 H         5.299573         0.445335         1.630283
 H         4.432221        -0.518458         2.722799
 H         2.219545        -2.098399         0.181098
 H         1.728773        -1.484486         1.782728
 H        -0.672777        -0.180058         0.750184
 H        -0.360341         0.917152        -0.626991
 H        -0.229898        -0.790118        -0.967149
 H         4.037973         0.975162        -1.168499
 H         1.759231         2.649796         1.129649
