19
Iteration:  2987
 C         4.655517        -0.354511         1.657051
 C         3.385865        -0.230577         0.889902
 C         2.206205        -1.246097         0.760550
 C         1.388795        -0.101167         0.005043
 C        -0.081212         0.027323        -0.101869
 O         2.168780         0.058163        -1.199844
 C         3.261202         0.595585        -0.392729
 C         2.400833         0.962511         0.755017
 O         2.255516         2.070758         1.592594
 H         5.202227        -1.201693         1.369081
 H         5.289748         0.607964         1.743016
 H         4.561415        -0.595146         2.671590
 H         2.155399        -2.233228         0.263725
 H         1.747663        -1.335577         1.748959
 H        -0.565386         0.298632         0.885637
 H        -0.394789         0.949997        -0.759461
 H        -0.450790        -0.911677        -0.630261
 H         4.114340         1.041785        -1.009763
 H         1.805567         2.736287         1.050801
