19
Iteration:  3178
 C         4.605318        -0.386618         1.553204
 C         3.287984        -0.199715         0.989451
 C         2.129948        -1.163622         0.828880
 C         1.483529        -0.033805         0.077312
 C         0.039831         0.023456        -0.103280
 O         2.251643         0.000159        -1.215812
 C         3.197148         0.662041        -0.536228
 C         2.454789         0.981270         0.729735
 O         2.127341         1.980334         1.643277
 H         4.940338        -1.254484         1.026197
 H         5.306216         0.424216         1.516981
 H         4.626395        -0.647583         2.655708
 H         2.384499        -2.029605         0.278935
 H         1.559100        -1.427147         1.733735
 H        -0.519721         0.304230         0.845331
 H        -0.228848         0.777954        -0.871713
 H        -0.479572        -0.986875        -0.456934
 H         4.165706         1.054839        -1.013715
 H         2.652870         2.757861         1.471589
