19
Iteration:  4707
 C         4.690049        -0.232242         1.640458
 C         3.384861        -0.279590         0.797779
 C         2.153550        -1.224165         0.762496
 C         1.376214        -0.060197         0.034015
 C        -0.031591        -0.022366        -0.162255
 O         2.131930         0.111930        -1.167496
 C         3.275169         0.520781        -0.482039
 C         2.368328         0.976364         0.769729
 O         2.263425         1.974861         1.712052
 H         5.374516        -1.103179         1.538057
 H         5.167169         0.792575         1.622855
 H         4.481668        -0.447842         2.750505
 H         2.316417        -2.299859         0.383528
 H         1.738920        -1.147918         1.750132
 H        -0.562522        -0.252762         0.724615
 H        -0.359260         1.024122        -0.448604
 H        -0.375781        -0.680999        -0.964578
 H         4.001846         1.109322        -1.059087
 H         2.149241         2.728534         1.161759
