19
Iteration:  4036
 C         4.647580        -0.357066         1.562521
 C         3.254091        -0.307022         0.971086
 C         2.174413        -1.261552         0.799314
 C         1.470795        -0.061283         0.082530
 C         0.012674        -0.007789        -0.138881
 O         2.159974         0.069904        -1.190947
 C         3.243653         0.561029        -0.409797
 C         2.415312         0.980024         0.804379
 O         2.258626         2.176673         1.573647
 H         5.399896        -1.081636         1.042406
 H         5.159354         0.615567         1.525417
 H         4.624088        -0.765930         2.634613
 H         2.406098        -2.087846         0.152665
 H         1.497097        -1.505229         1.603595
 H        -0.646908        -0.107301         0.720641
 H        -0.269835         0.951372        -0.626251
 H        -0.283386        -0.847066        -0.739389
 H         4.109104         0.911179        -0.893567
 H         1.544638         2.678397         0.902682
