19
Iteration:  2134
 C         4.691553        -0.442114         1.646871
 C         3.377816        -0.296900         0.938435
 C         2.105377        -1.163120         0.809996
 C         1.447991        -0.027275         0.074997
 C        -0.053935        -0.029035        -0.119866
 O         2.159393         0.163262        -1.266176
 C         3.277936         0.554256        -0.432426
 C         2.501101         0.981062         0.771231
 O         2.189120         2.077770         1.585333
 H         5.329645        -0.969040         0.977526
 H         5.180605         0.495613         1.866334
 H         4.489718        -1.051294         2.605705
 H         1.971550        -2.209959         0.374090
 H         1.585542        -1.235504         1.768192
 H        -0.447754         0.064353         0.887028
 H        -0.521045         0.790241        -0.678372
 H        -0.366676        -0.980430        -0.504822
 H         4.130667         0.900511        -1.010792
 H         1.759429         2.681197         0.831067
