19
Iteration:   980
 C         4.751985        -0.344417         1.590292
 C         3.364159        -0.254111         0.966510
 C         2.101127        -1.300706         0.720278
 C         1.343802        -0.068983         0.105029
 C        -0.094707         0.148933        -0.225307
 O         2.191523         0.075618        -1.205203
 C         3.271575         0.567783        -0.371504
 C         2.375292         0.917264         0.824974
 O         2.287414         2.042313         1.640808
 H         5.335464        -1.030630         0.922375
 H         5.220746         0.693256         1.534877
 H         4.787219        -0.626309         2.655375
 H         2.209517        -2.148101         0.067043
 H         1.627513        -1.479957         1.756365
 H        -0.829634         0.215358         0.597096
 H        -0.165856         1.001980        -0.874942
 H        -0.279854        -0.777577        -0.799145
 H         4.229977         0.986119        -0.784536
 H         1.701885         2.546345         1.134002
