19
Iteration:  4927
 C         4.628505        -0.298509         1.721030
 C         3.376380        -0.206664         0.846431
 C         2.168938        -1.146525         0.748384
 C         1.388507        -0.125370         0.011977
 C        -0.091206        -0.060840        -0.021622
 O         2.185185         0.121764        -1.286697
 C         3.323094         0.555384        -0.500442
 C         2.427551         0.989167         0.677861
 O         2.213839         1.963006         1.722273
 H         5.299580        -0.969240         1.215422
 H         5.283758         0.615835         1.622669
 H         4.463037        -0.407251         2.771247
 H         1.978525        -2.130370         0.228338
 H         1.901087        -1.114943         1.723505
 H        -0.637907        -0.109584         0.962291
 H        -0.242034         0.875406        -0.549904
 H        -0.650621        -0.885146        -0.535811
 H         4.162231         0.795924        -1.076981
 H         2.254476         2.749123         1.357379
