19
Iteration:  4567charge 0 multiplicity 1
 C         4.669261        -0.301101         1.595700
 C         3.362528        -0.225154         0.904251
 C         2.170779        -1.217099         0.760106
 C         1.412665        -0.083437         0.048024
 C        -0.062701         0.050642        -0.097413
 O         2.213366         0.047240        -1.219043
 C         3.202015         0.627648        -0.429263
 C         2.354364         0.892973         0.797474
 O         2.270869         1.998388         1.637462
 H         5.153966        -1.067850         1.069112
 H         5.167627         0.701558         1.785846
 H         4.607267        -0.707259         2.588655
 H         2.472917        -2.055889         0.082614
 H         1.862516        -1.383113         1.772479
 H        -0.640263         0.368567         0.746116
 H        -0.250657         0.778342        -0.938996
 H        -0.312731        -0.952230        -0.451745
 H         4.024862         1.125498        -0.913104
 H         1.718891         2.782658         1.114397
