19
Iteration:   806
 C         4.761219        -0.402242         1.645462
 C         3.310950        -0.277835         0.924139
 C         2.189170        -1.223042         0.875178
 C         1.429531        -0.021238         0.050869
 C        -0.117891         0.094242        -0.251639
 O         2.187336         0.085037        -1.228845
 C         3.187991         0.648371        -0.466438
 C         2.444097         0.954227         0.731408
 O         2.203162         1.930480         1.679144
 H         5.458775        -1.097333         1.280517
 H         5.321663         0.589838         1.452923
 H         4.710925        -0.511550         2.704575
 H         2.023267        -2.233758         0.574279
 H         1.645086        -1.055374         1.896733
 H        -0.815241        -0.053324         0.655189
 H        -0.350926         1.001917        -0.804577
 H        -0.438631        -0.697789        -0.989804
 H         3.970532         1.106692        -1.038844
 H         2.621052         2.685158         1.451273
