19
Iteration:  2878charge 0 multiplicity 1
 C         4.700204        -0.323586         1.664358
 C         3.349579        -0.292556         0.895826
 C         2.155240        -1.274824         0.792902
 C         1.380028        -0.085471         0.097696
 C        -0.093024        -0.000380        -0.185676
 O         2.121963         0.116202        -1.224555
 C         3.246863         0.586996        -0.423218
 C         2.450074         0.934823         0.827240
 O         2.295514         2.097666         1.606224
 H         5.271069        -1.140778         1.224125
 H         5.299541         0.704748         1.329501
 H         4.476697        -0.327424         2.749962
 H         2.282498        -2.250082         0.345995
 H         1.557073        -1.517920         1.692501
 H        -0.807549        -0.345705         0.655296
 H        -0.244913         1.073335        -0.625191
 H        -0.171532        -0.710284        -1.069601
 H         4.137822         1.039802        -0.889774
 H         2.109446         2.770965         0.950530
