19
Iteration:  2394
 C         4.555809        -0.402298         1.766144
 C         3.412379        -0.273610         0.856384
 C         2.234998        -1.243683         0.769992
 C         1.410581        -0.062595         0.064488
 C        -0.010504         0.023706        -0.124969
 O         2.053648         0.134785        -1.205596
 C         3.241035         0.610379        -0.480350
 C         2.445352         0.912489         0.745445
 O         2.295063         2.078953         1.557623
 H         5.249712        -1.254457         1.594605
 H         5.416181         0.397843         1.636556
 H         4.213770        -0.340946         2.778816
 H         2.291084        -2.237913         0.151725
 H         1.795614        -1.408334         1.803993
 H        -0.432525        -0.159894         0.902076
 H        -0.392756         0.962708        -0.564771
 H        -0.230380        -0.805086        -0.771785
 H         4.107927         1.229567        -0.897426
 H         1.783273         2.684244         1.057931
