19
Iteration:   409
 C         4.460658        -0.396181         1.745874
 C         3.340238        -0.291971         0.823094
 C         2.265781        -1.289813         0.615132
 C         1.419212        -0.054145         0.023221
 C        -0.089853         0.040198         0.011944
 O         2.152161         0.026483        -1.234193
 C         3.341044         0.626640        -0.351783
 C         2.421615         0.976718         0.806119
 O         2.264306         2.130853         1.533903
 H         5.247461        -1.067999         1.395685
 H         4.932875         0.560521         1.777706
 H         4.249623        -0.557825         2.808052
 H         2.424304        -2.175150        -0.074901
 H         1.801852        -1.661173         1.540828
 H        -0.596324        -0.006348         0.977166
 H        -0.276167         1.045450        -0.380766
 H        -0.545208        -0.710148        -0.620350
 H         4.238471         1.067411        -0.851022
 H         2.809975         2.907523         1.038572
