19
Iteration:  3810charge 0 multiplicity 1
 C         4.679992        -0.340224         1.763952
 C         3.356096        -0.324008         0.950625
 C         2.232777        -1.293573         0.663806
 C         1.434310        -0.086439         0.034990
 C        -0.093246         0.014740        -0.053577
 O         2.072258         0.134919        -1.243451
 C         3.183752         0.609333        -0.414849
 C         2.471495         0.888029         0.824490
 O         2.287924         2.094726         1.512399
 H         5.346990        -1.133531         1.477601
 H         5.175729         0.772104         1.734227
 H         4.441539        -0.318857         2.818700
 H         2.382176        -2.125797        -0.064161
 H         1.705938        -1.597482         1.542116
 H        -0.517269         0.202420         0.924827
 H        -0.242070         0.933188        -0.655112
 H        -0.550146        -0.765633        -0.753144
 H         4.058407         1.160749        -0.898187
 H         2.110161         2.838315         0.830443
