19
Iteration:  4402
 C         4.705247        -0.434244         1.562770
 C         3.371740        -0.179506         0.903798
 C         2.196401        -1.249386         0.822818
 C         1.434501        -0.024827         0.095155
 C        -0.036179         0.019447        -0.138465
 O         2.242368        -0.008387        -1.244375
 C         3.175199         0.591272        -0.468725
 C         2.387341         0.977149         0.757948
 O         2.158961         2.079126         1.672299
 H         5.361662        -1.151995         1.076717
 H         5.170607         0.607016         1.955394
 H         4.455101        -0.754532         2.583410
 H         2.298275        -2.153492         0.161422
 H         1.587052        -1.249923         1.731498
 H        -0.617117         0.197635         0.849678
 H        -0.352501         0.945594        -0.764786
 H        -0.339221        -0.974892        -0.613862
 H         3.992838         1.245684        -0.849563
 H         2.070133         3.011660         1.093894
