19
Iteration:   391charge 0 multiplicity 1
 C         4.598063        -0.483231         1.858127
 C         3.425554        -0.310476         0.853532
 C         2.173582        -1.213373         0.673503
 C         1.436652        -0.038938         0.041376
 C        -0.025932         0.043152         0.067720
 O         2.183235         0.169738        -1.255858
 C         3.262537         0.583655        -0.491268
 C         2.455462         0.931090         0.728901
 O         2.116454         2.097842         1.440468
 H         5.316667        -1.253584         1.627896
 H         5.204769         0.458155         2.155500
 H         4.083292        -0.928105         2.707610
 H         2.209703        -2.065190        -0.020804
 H         1.734976        -1.468900         1.721225
 H        -0.252913        -0.138767         1.127313
 H        -0.498576         1.001932        -0.278058
 H        -0.520951        -0.770870        -0.530602
 H         4.052234         1.131421        -1.004584
 H         2.818685         2.872651         1.237914
