19
Iteration:  4505charge 0 multiplicity 1
 C         4.588325        -0.291291         1.716647
 C         3.345724        -0.253863         0.829464
 C         2.203278        -1.217353         0.737785
 C         1.410031        -0.123871        -0.009335
 C        -0.077015        -0.020695        -0.075245
 O         2.189741         0.049430        -1.220864
 C         3.201577         0.663960        -0.486962
 C         2.412343         0.964737         0.734674
 O         2.304552         2.027286         1.685494
 H         5.207123        -1.191137         1.480036
 H         5.266525         0.539397         1.500759
 H         4.313241        -0.422781         2.773359
 H         2.370910        -2.180784         0.314299
 H         1.804632        -1.392352         1.772528
 H        -0.550989        -0.343016         0.853006
 H        -0.388107         0.987131        -0.407496
 H        -0.461991        -0.770433        -0.810817
 H         4.039644         1.174296        -1.081792
 H         2.337444         2.968757         1.299118
