19
Iteration:  4242charge 0 multiplicity 1
 C         4.735709        -0.360042         1.559460
 C         3.304776        -0.297812         1.016090
 C         2.124642        -1.280504         0.760614
 C         1.425511        -0.057567         0.023603
 C        -0.071702        -0.005547        -0.164021
 O         2.201590         0.024464        -1.189471
 C         3.221822         0.588504        -0.409394
 C         2.438126         1.025961         0.809165
 O         2.213542         2.159367         1.585741
 H         5.301260        -1.277840         1.138418
 H         5.294349         0.619199         1.550911
 H         4.636785        -0.726309         2.672034
 H         2.329639        -2.193557         0.174594
 H         1.677640        -1.464621         1.796418
 H        -0.608005        -0.231869         0.736610
 H        -0.431094         0.957350        -0.552737
 H        -0.312633        -0.820525        -0.811718
 H         4.122749         1.196320        -0.802270
 H         2.056788         2.905097         1.106447
