19
Iteration:  4130
 C         4.635383        -0.327296         1.818473
 C         3.384994        -0.288702         0.863700
 C         2.151755        -1.255566         0.679103
 C         1.427657        -0.067694         0.004917
 C        -0.094059        -0.046299        -0.014660
 O         2.143033         0.078585        -1.269061
 C         3.290038         0.641353        -0.482157
 C         2.422801         0.910876         0.729884
 O         2.307936         2.143152         1.596683
 H         5.275855        -1.194738         1.696553
 H         5.337044         0.571403         1.613359
 H         4.224567        -0.411424         2.835753
 H         2.178637        -2.134102        -0.026162
 H         1.516837        -1.726103         1.531873
 H        -0.502441        -0.123705         1.053607
 H        -0.418811         0.963719        -0.329526
 H        -0.472658        -0.966820        -0.492681
 H         4.111557         1.132240        -0.916811
 H         1.775140         2.803056         1.087817
