19
Iteration:  4076charge 0 multiplicity 1
 C         4.683372        -0.373037         1.614806
 C         3.435040        -0.270233         0.905781
 C         2.174193        -1.160849         0.838093
 C         1.384388        -0.092445         0.020251
 C        -0.096504        -0.015300        -0.221514
 O         2.190690         0.008157        -1.208907
 C         3.115188         0.605585        -0.438430
 C         2.411944         0.981565         0.816998
 O         2.288991         2.093337         1.636291
 H         5.218694        -1.260209         1.284138
 H         5.183987         0.530701         1.444491
 H         4.524507        -0.448364         2.709779
 H         2.237828        -2.183280         0.409079
 H         1.582729        -1.005173         1.829812
 H        -0.473770        -0.402590         0.757128
 H        -0.377570         0.978587        -0.585268
 H        -0.222228        -0.778876        -0.994996
 H         3.957231         1.155657        -0.851881
 H         2.260644         2.941461         1.221916
