19
Iteration:  4783charge 0 multiplicity 1
 C         4.617067        -0.449175         1.754733
 C         3.372712        -0.272277         0.875892
 C         2.278969        -1.284562         0.727430
 C         1.462473        -0.046818         0.079059
 C        -0.044703        -0.020186        -0.069136
 O         2.088222         0.200285        -1.199844
 C         3.264011         0.661109        -0.450559
 C         2.466320         0.947821         0.749436
 O         2.196999         2.085732         1.544268
 H         5.313498        -1.213784         1.222362
 H         5.202818         0.434307         1.555177
 H         4.583584        -0.903546         2.784234
 H         2.260874        -2.168235         0.058251
 H         1.875852        -1.492366         1.689095
 H        -0.649799         0.101042         0.801515
 H        -0.392844         0.570201        -0.984018
 H        -0.324207        -1.100824        -0.191563
 H         3.858286         1.379938        -1.080355
 H         1.565940         2.652996         1.126907
