19
Iteration:  1704charge 0 multiplicity 1
 C         4.711884        -0.369488         1.698912
 C         3.412590        -0.259464         0.819965
 C         2.224501        -1.297566         0.743532
 C         1.375685        -0.108485         0.111459
 C        -0.061706         0.150151        -0.137026
 O         2.129973         0.139593        -1.221493
 C         3.227039         0.653256        -0.427874
 C         2.438904         0.892375         0.766792
 O         2.169769         1.988475         1.625673
 H         5.344513        -1.299686         1.623002
 H         5.400067         0.554037         1.569593
 H         4.323215        -0.426339         2.686189
 H         2.404764        -2.137883         0.135765
 H         1.725380        -1.733197         1.652709
 H        -0.638140         0.098008         0.787602
 H        -0.044485         1.090409        -0.627869
 H        -0.466637        -0.645753        -0.735060
 H         4.067284         1.050980        -1.004893
 H         1.995573         2.728419         1.031536
