19
Iteration:  3217charge 0 multiplicity 1
 C         4.767970        -0.423671         1.656378
 C         3.391566        -0.248609         0.862089
 C         2.132590        -1.221187         0.820268
 C         1.385032        -0.095631         0.108200
 C        -0.121620         0.017548        -0.207834
 O         2.197021         0.093309        -1.170159
 C         3.223057         0.666508        -0.455236
 C         2.499016         0.938952         0.802163
 O         2.170839         2.039178         1.603020
 H         5.335048        -1.410849         1.466078
 H         5.318097         0.563881         1.334546
 H         4.501814        -0.401883         2.706385
 H         2.179890        -2.206769         0.232300
 H         1.540092        -1.235803         1.752388
 H        -0.612818        -0.031786         0.750333
 H        -0.357696         1.003614        -0.550102
 H        -0.364401        -0.733334        -0.902732
 H         3.998897         1.175722        -1.080986
 H         2.102482         2.806225         0.832740
