19
Iteration:  3134charge 0 multiplicity 1
 C         4.602301        -0.389251         1.672499
 C         3.384850        -0.272748         0.913651
 C         2.256611        -1.274297         0.701635
 C         1.398667        -0.079841         0.079612
 C        -0.051510         0.046088        -0.028190
 O         2.136374         0.200810        -1.220412
 C         3.297755         0.560880        -0.348612
 C         2.383010         0.897666         0.865222
 O         2.195607         2.068343         1.408101
 H         5.299687        -1.053425         1.211969
 H         5.182457         0.459089         1.836319
 H         4.448393        -0.728427         2.727454
 H         2.207547        -2.079245         0.024053
 H         1.971180        -1.650995         1.694195
 H        -0.544846         0.235786         0.953407
 H        -0.175401         0.808952        -0.791809
 H        -0.551097        -0.932407        -0.444297
 H         4.237117         1.166223        -0.705471
 H         2.206500         2.866857         0.712016
