19
Iteration:  2521charge 0 multiplicity 1
 C         4.677257        -0.407972         1.500086
 C         3.337602        -0.247583         1.009063
 C         2.163305        -1.254579         0.807025
 C         1.416216        -0.078999        -0.003305
 C        -0.039607         0.082336        -0.114048
 O         2.238313        -0.018698        -1.206088
 C         3.270991         0.588580        -0.363414
 C         2.372063         0.957925         0.779856
 O         2.137988         2.162110         1.577214
 H         5.421712        -0.977707         0.861342
 H         5.000350         0.573611         1.855046
 H         4.830527        -0.935454         2.535876
 H         2.343866        -2.130155         0.251383
 H         1.542615        -1.609337         1.634251
 H        -0.411597         0.259901         0.921861
 H        -0.269232         1.007268        -0.768841
 H        -0.589938        -0.919075        -0.514705
 H         4.166761         1.094120        -0.858581
 H         2.423063         2.923334         1.254915
