19
Iteration:  2955charge 0 multiplicity 1
 C         4.586542        -0.522562         1.759515
 C         3.386377        -0.207104         0.874456
 C         2.206912        -1.143972         0.788933
 C         1.458037        -0.002907         0.004080
 C         0.044470        -0.016738         0.074303
 O         2.168073         0.094500        -1.296701
 C         3.284514         0.616140        -0.497711
 C         2.464376         0.982054         0.678092
 O         2.074616         2.030168         1.548215
 H         5.309587        -1.058784         1.231402
 H         5.241905         0.387407         2.117892
 H         4.162147        -1.090806         2.619049
 H         2.025822        -2.117448         0.350485
 H         1.780754        -1.036927         1.761211
 H        -0.351774         0.031835         1.144230
 H        -0.459764         0.689806        -0.712447
 H        -0.295917        -1.090622        -0.236853
 H         4.121950         1.120266        -1.119208
 H         2.263069         2.972330         1.124127
