19
Iteration:   509charge 0 multiplicity 1
 C         4.654649        -0.452326         1.648398
 C         3.365049        -0.225604         0.903985
 C         2.193949        -1.185286         0.831738
 C         1.336896        -0.118647        -0.042903
 C        -0.159314        -0.014028        -0.152377
 O         2.232556         0.055149        -1.285309
 C         3.271704         0.645757        -0.400958
 C         2.451839         1.015039         0.752730
 O         2.239488         2.087482         1.709032
 H         5.178448        -1.378138         1.364534
 H         5.497118         0.285587         1.499428
 H         4.435043        -0.646635         2.691593
 H         2.190524        -2.109792         0.248013
 H         1.821999        -1.336680         1.888384
 H        -0.611942        -0.007294         0.813039
 H        -0.299531         0.919876        -0.754480
 H        -0.667853        -0.723081        -0.814148
 H         4.218817         1.042054        -0.713510
 H         2.165448         2.952740         1.004315
