19
Iteration:  1880
 C         4.655536        -0.358273         1.751319
 C         3.415101        -0.282955         0.827056
 C         2.166308        -1.230066         0.756913
 C         1.382974        -0.114060         0.101432
 C        -0.052389         0.024065        -0.137451
 O         2.094426         0.136790        -1.252589
 C         3.249233         0.618030        -0.512602
 C         2.508823         0.973779         0.719816
 O         2.247756         1.969766         1.652962
 H         5.185679        -1.284270         1.828138
 H         5.442440         0.492498         1.601956
 H         4.242201        -0.126417         2.728953
 H         2.291843        -2.215346         0.171322
 H         1.835723        -1.383188         1.875462
 H        -0.569673        -0.011255         0.792992
 H        -0.291898         1.065173        -0.454564
 H        -0.555261        -0.600977        -0.870175
 H         4.025212         1.217334        -0.920629
 H         1.871041         2.827458         1.251062
