19
Iteration:  1998charge 0 multiplicity 1
 C         4.661795        -0.412332         1.646766
 C         3.309414        -0.146883         0.903071
 C         2.237154        -1.187006         0.762600
 C         1.350528        -0.117817         0.090096
 C        -0.069776         0.019087        -0.252068
 O         2.139269        -0.028961        -1.143724
 C         3.169974         0.644005        -0.426906
 C         2.352243         1.022906         0.737161
 O         2.378538         2.050970         1.679177
 H         5.289362        -1.191224         1.131776
 H         5.395943         0.484932         1.695291
 H         4.443341        -0.701206         2.632800
 H         2.458447        -2.028188         0.178997
 H         2.061814        -1.478321         1.808705
 H        -0.716291         0.130518         0.648847
 H        -0.100134         0.951567        -0.844833
 H        -0.398552        -0.723785        -1.065841
 H         3.996445         0.904726        -0.987627
 H         2.003877         2.692834         1.207542
