19
Iteration:  1068charge 0 multiplicity 1
 C         4.491662        -0.450865         1.768087
 C         3.354725        -0.251628         0.829240
 C         2.189803        -1.163779         0.671641
 C         1.431288        -0.097526         0.007767
 C        -0.020965        -0.087225        -0.002741
 O         2.145334         0.207796        -1.261812
 C         3.267612         0.587883        -0.407319
 C         2.411588         0.978204         0.763833
 O         2.370584         2.058458         1.590442
 H         5.098093        -1.412162         1.615730
 H         5.366384         0.364308         1.681491
 H         4.066294        -0.369345         2.792592
 H         2.479430        -1.804118        -0.149928
 H         1.549124        -1.690066         1.395969
 H        -0.396549        -0.262146         0.983305
 H        -0.345321         0.903271        -0.309197
 H        -0.528919        -0.792241        -0.664378
 H         4.090248         0.997353        -0.934248
 H         1.722482         2.887004         1.254096
