19
Iteration:  1610
 C         4.579840        -0.446858         1.717844
 C         3.364751        -0.255010         0.858641
 C         2.203708        -1.246705         0.657572
 C         1.437341        -0.128980         0.061130
 C        -0.074186        -0.089346        -0.136249
 O         2.074826         0.166254        -1.195155
 C         3.240404         0.700546        -0.407024
 C         2.455821         0.935109         0.814865
 O         2.352801         2.160407         1.622843
 H         5.268318        -1.195537         1.458531
 H         5.132100         0.458573         1.801981
 H         4.282492        -0.792541         2.776887
 H         2.292688        -2.203820         0.007063
 H         1.743360        -1.561490         1.566382
 H        -0.754503        -0.247114         0.701279
 H        -0.379889         0.859373        -0.685927
 H        -0.446096        -0.913041        -0.799511
 H         4.019395         1.180336        -1.025970
 H         2.368142         2.830058         1.051704
