19
Iteration:  2686charge 0 multiplicity 1
 C         4.673732        -0.398514         1.613677
 C         3.295561        -0.226613         0.936054
 C         2.171302        -1.216283         0.829552
 C         1.457563        -0.121850         0.035319
 C        -0.029531         0.059544        -0.194545
 O         2.214833        -0.022589        -1.179793
 C         3.176755         0.660652        -0.455846
 C         2.372839         1.015301         0.761441
 O         2.290314         2.109209         1.618589
 H         5.166736        -1.187383         1.042602
 H         5.243123         0.427529         1.832974
 H         4.558896        -0.901856         2.607615
 H         2.345603        -2.151725         0.394838
 H         1.792917        -1.572642         1.734833
 H        -0.616253         0.023766         0.734499
 H        -0.255024         1.040510        -0.630119
 H        -0.495734        -0.777184        -0.839058
 H         4.014214         1.083707        -1.024300
 H         1.607038         2.624030         1.312304
