19
Iteration:  4601charge 0 multiplicity 1
 C         4.673541        -0.431364         1.650469
 C         3.353125        -0.232208         0.868517
 C         2.282775        -1.256972         0.744646
 C         1.453661        -0.088265         0.035387
 C        -0.074569        -0.010684        -0.046656
 O         2.183003         0.143841        -1.243006
 C         3.199003         0.583992        -0.412864
 C         2.418223         0.940332         0.831190
 O         2.109554         2.157460         1.601845
 H         5.291153        -1.084104         1.147581
 H         5.375032         0.443932         1.645763
 H         4.406723        -0.813864         2.592372
 H         2.255713        -2.134095         0.152534
 H         1.760176        -1.516654         1.630184
 H        -0.613976         0.052069         0.871908
 H        -0.387218         0.716429        -0.829744
 H        -0.323415        -1.004080        -0.477721
 H         4.075127         0.990192        -1.034842
 H         2.661991         2.737647         1.009079
