19
Iteration:  1578charge 0 multiplicity 1
 C         4.564516        -0.526588         1.727950
 C         3.356339        -0.216289         0.994151
 C         2.257936        -1.227057         0.623701
 C         1.407989        -0.154079         0.045529
 C        -0.144103        -0.032548         0.008895
 O         2.182287         0.147459        -1.250053
 C         3.267882         0.727373        -0.409939
 C         2.365655         0.927271         0.783794
 O         2.348604         2.111344         1.510847
 H         5.357301        -0.855959         1.077554
 H         4.890667         0.403533         2.147687
 H         4.274237        -1.158699         2.621997
 H         2.434796        -1.997398        -0.224752
 H         1.820243        -1.598946         1.513612
 H        -0.637229        -0.085417         0.960116
 H        -0.294272         0.897834        -0.578406
 H        -0.496270        -0.808547        -0.682590
 H         4.098203         1.341926        -0.778090
 H         2.005745         3.004143         0.974232
