19
Iteration:   371charge 0 multiplicity 1
 C         4.559885        -0.610329         1.806276
 C         3.373833        -0.271016         1.032225
 C         2.215524        -1.219041         0.813465
 C         1.514560        -0.027257         0.030241
 C        -0.020018         0.064329         0.106476
 O         2.104212         0.212130        -1.326284
 C         3.325002         0.730160        -0.535089
 C         2.562105         0.910618         0.671840
 O         1.996635         2.025448         1.360793
 H         5.293259        -1.291792         1.289461
 H         5.098133         0.398483         1.856572
 H         4.298942        -1.099512         2.774220
 H         2.500141        -2.133181         0.394801
 H         1.734485        -1.312085         1.779184
 H        -0.384568        -0.058983         1.126784
 H        -0.417207         0.962184        -0.403888
 H        -0.404373        -0.735359        -0.575428
 H         4.307365         1.040390        -0.829411
 H         2.835513         2.763326         1.407444
