19
Iteration:  1354
 C         4.710688        -0.378358         1.562014
 C         3.271870        -0.314732         0.906113
 C         2.062161        -1.234527         0.745133
 C         1.431152        -0.033673        -0.046022
 C        -0.061336         0.060207        -0.122426
 O         2.258419         0.096873        -1.226034
 C         3.312154         0.582676        -0.292291
 C         2.418730         0.965464         0.835834
 O         2.190496         2.015940         1.650572
 H         5.473192        -0.720381         0.863723
 H         4.951529         0.712094         1.858319
 H         4.721944        -1.009738         2.417049
 H         2.156760        -2.032024         0.010999
 H         1.521318        -1.633362         1.709116
 H        -0.346966         0.012604         0.956092
 H        -0.362696         1.049035        -0.559083
 H        -0.529058        -0.742888        -0.752251
 H         3.998286         1.154324        -0.844516
 H         2.345710         2.894995         0.985903
