19
Iteration:  4401charge 0 multiplicity 1
 C         4.707077        -0.428564         1.561652
 C         3.367208        -0.188921         0.899114
 C         2.203792        -1.246631         0.823241
 C         1.434170        -0.023892         0.099525
 C        -0.037697         0.025988        -0.143523
 O         2.239756        -0.009189        -1.244645
 C         3.182665         0.586774        -0.468077
 C         2.376120         0.974273         0.759469
 O         2.159855         2.082780         1.673869
 H         5.389671        -1.156257         1.065499
 H         5.158895         0.587661         1.954002
 H         4.439428        -0.738022         2.598585
 H         2.287532        -2.181974         0.159872
 H         1.610838        -1.248130         1.745554
 H        -0.600006         0.213890         0.851751
 H        -0.367176         0.917992        -0.769048
 H        -0.323010        -0.962748        -0.618538
 H         4.001356         1.263336        -0.850747
 H         2.067498         2.992212         1.112667
