19
Iteration:  2578charge 0 multiplicity 1
 C         4.567257        -0.474124         1.787770
 C         3.395808        -0.187892         0.882413
 C         2.251969        -1.191275         0.740408
 C         1.465040        -0.075757         0.076406
 C        -0.036256         0.004391        -0.060438
 O         2.126119         0.084971        -1.250484
 C         3.209530         0.593424        -0.502673
 C         2.446423         0.945093         0.752742
 O         2.284920         2.124254         1.546055
 H         4.947662        -1.416350         1.422288
 H         5.382855         0.352887         1.686285
 H         4.019535        -0.478877         2.714393
 H         2.448956        -1.960047         0.037054
 H         1.722755        -1.400349         1.650868
 H        -0.448162        -0.065559         0.953939
 H        -0.391368         0.965767        -0.473241
 H        -0.408488        -0.998372        -0.591721
 H         4.018036         0.979914        -1.019541
 H         1.400167         2.570806         1.260275
