19
Iteration:  2553charge 0 multiplicity 1
 C         4.719519        -0.477748         1.683093
 C         3.352885        -0.278584         0.910783
 C         2.124369        -1.267764         0.827462
 C         1.452669        -0.069212         0.080720
 C        -0.067618         0.003900        -0.070148
 O         2.179041         0.167906        -1.209010
 C         3.303862         0.618620        -0.418387
 C         2.465918         0.969959         0.735512
 O         2.188342         2.088848         1.475562
 H         5.426737        -1.111662         1.068241
 H         5.094648         0.528116         1.744778
 H         4.323060        -0.692782         2.759180
 H         2.196605        -2.137304         0.199475
 H         1.602256        -1.377185         1.794543
 H        -0.611925         0.219259         0.889727
 H        -0.226394         0.981187        -0.653990
 H        -0.583192        -0.996088        -0.489027
 H         4.137076         1.112780        -1.000275
 H         1.408422         2.635704         0.925773
