19
Iteration:  1440
 C         4.520954        -0.414612         1.711791
 C         3.308795        -0.284101         0.865032
 C         2.155518        -1.238962         0.693868
 C         1.408114        -0.021407        -0.079193
 C        -0.071478        -0.111056        -0.054784
 O         2.208427         0.227225        -1.266860
 C         3.300307         0.639261        -0.408128
 C         2.421328         1.018068         0.770603
 O         2.334251         2.012493         1.665613
 H         4.998206        -1.427265         1.557347
 H         5.373939         0.134064         1.363783
 H         4.402729        -0.168022         2.742848
 H         2.319515        -2.255953         0.352060
 H         1.684419        -1.267704         1.748042
 H        -0.416105        -0.428672         0.959546
 H        -0.659430         0.780876        -0.405439
 H        -0.523861        -0.960789        -0.649258
 H         4.222341         0.986246        -0.828567
 H         2.253936         2.990803         1.276776
