19
Iteration:  2755charge 0 multiplicity 1
 C         4.604908        -0.445633         1.666488
 C         3.346019        -0.219772         0.957386
 C         2.244187        -1.239639         0.712527
 C         1.431040        -0.120381         0.033348
 C        -0.061057         0.030733         0.001387
 O         2.229337         0.121520        -1.226819
 C         3.234531         0.600022        -0.361709
 C         2.367147         0.963948         0.772554
 O         2.177465         2.101427         1.444663
 H         5.059523        -0.995812         0.902299
 H         5.043746         0.555945         2.059746
 H         4.519121        -1.037331         2.549066
 H         2.343150        -2.123059         0.125824
 H         1.724798        -1.777753         1.495773
 H        -0.386577         0.296395         1.076428
 H        -0.362786         0.931001        -0.614281
 H        -0.508511        -0.967672        -0.297946
 H         4.147931         1.127892        -0.718559
 H         2.763614         2.853669         1.040637
