19
Iteration:  3356charge 0 multiplicity 1
 C         4.596059        -0.285655         1.540681
 C         3.290333        -0.297655         0.960754
 C         2.144333        -1.296992         0.786457
 C         1.430392        -0.148849         0.055051
 C        -0.079740         0.053394        -0.117051
 O         2.278486         0.075739        -1.224357
 C         3.250343         0.599205        -0.351388
 C         2.403386         0.960367         0.756191
 O         2.268140         2.103619         1.624572
 H         5.196039        -1.107385         1.068348
 H         5.067147         0.572467         1.330861
 H         4.661717        -0.575415         2.566105
 H         2.467449        -2.037066         0.088097
 H         1.775385        -1.669433         1.734212
 H        -0.569645         0.476591         0.839378
 H        -0.365287         0.928386        -0.884869
 H        -0.564874        -0.872278        -0.502229
 H         4.280365         0.953536        -0.762090
 H         1.745176         2.712543         1.049069
