19
Iteration:   945
 C         4.609418        -0.459646         1.697387
 C         3.333420        -0.220568         0.856431
 C         2.141888        -1.233972         0.753606
 C         1.452358        -0.099813         0.068917
 C        -0.049829         0.065229         0.004781
 O         2.242741         0.142848        -1.291822
 C         3.282910         0.655354        -0.464946
 C         2.394090         0.908317         0.740656
 O         2.177581         2.047638         1.605318
 H         5.448553        -0.930543         1.002779
 H         5.072964         0.472247         1.997567
 H         4.553018        -1.154271         2.637445
 H         2.126537        -2.215847         0.301242
 H         1.645992        -1.325970         1.686303
 H        -0.686110         0.115228         0.918652
 H        -0.208575         0.943991        -0.577305
 H        -0.410367        -0.702596        -0.643842
 H         4.292464         0.901368        -0.813527
 H         2.324942         2.731265         1.082662
