19
Iteration:  2029charge 0 multiplicity 1
 C         4.612467        -0.302239         1.649838
 C         3.309448        -0.273171         0.866640
 C         2.074992        -1.205213         0.811094
 C         1.406123        -0.049441        -0.014981
 C        -0.035571        -0.015182        -0.160143
 O         2.167235         0.067039        -1.211738
 C         3.266503         0.593481        -0.456758
 C         2.445775         0.990929         0.709686
 O         2.371100         2.005624         1.718194
 H         5.249214        -1.282785         1.585599
 H         5.229490         0.610124         1.350142
 H         4.513370        -0.161608         2.754817
 H         2.208793        -2.189857         0.396752
 H         1.911068        -1.279257         1.888905
 H        -0.647898        -0.294122         0.782860
 H        -0.403776         0.994286        -0.464674
 H        -0.556258        -0.764703        -0.924336
 H         4.070679         0.976444        -1.000199
 H         1.718601         2.615876         1.155552
