19
Iteration:  1441charge 0 multiplicity 1
 C         4.532655        -0.410658         1.716831
 C         3.314921        -0.280321         0.864414
 C         2.139459        -1.234594         0.691562
 C         1.400908        -0.019924        -0.076907
 C        -0.066356        -0.111489        -0.059956
 O         2.209697         0.231757        -1.267855
 C         3.300487         0.632564        -0.413877
 C         2.413036         1.005397         0.774786
 O         2.333092         2.017474         1.665395
 H         4.997722        -1.379653         1.575773
 H         5.405898         0.127751         1.345449
 H         4.416799        -0.177353         2.728768
 H         2.323662        -2.255989         0.362458
 H         1.684706        -1.300933         1.775813
 H        -0.413772        -0.427549         0.969811
 H        -0.635045         0.781583        -0.417715
 H        -0.539134        -0.956145        -0.648769
 H         4.245359         0.976282        -0.838434
 H         2.268164         2.918686         1.311057
