19
Iteration:  4517
 C         4.607823        -0.264029         1.645626
 C         3.387615        -0.206192         0.853665
 C         2.153582        -1.244019         0.815609
 C         1.427295        -0.037227         0.032135
 C        -0.070902        -0.010487        -0.143942
 O         2.137636         0.031653        -1.238714
 C         3.259730         0.638233        -0.461917
 C         2.440380         0.956329         0.722314
 O         2.306999         1.944955         1.679645
 H         5.198524        -1.198781         1.398904
 H         5.116309         0.654175         1.726024
 H         4.289715        -0.284527         2.733924
 H         2.131071        -2.041148         0.098190
 H         1.758584        -1.360893         1.864273
 H        -0.340737        -0.104608         0.926644
 H        -0.566258         0.900004        -0.418382
 H        -0.414723        -0.856896        -0.774511
 H         4.118639         1.347089        -0.861658
 H         1.990617         2.581217         1.179630
