19
Iteration:    33
 C         4.491832        -0.437719         1.911910
 C         3.347119        -0.249209         0.916040
 C         2.280502        -1.193450         0.698772
 C         1.415118        -0.034540        -0.006883
 C        -0.086204        -0.060558         0.043429
 O         2.075824         0.059225        -1.261521
 C         3.234746         0.574508        -0.613574
 C         2.528814         1.005646         0.714327
 O         2.299601         2.186805         1.466308
 H         5.311336        -1.031408         1.586006
 H         4.863878         0.590596         2.034505
 H         4.175807        -0.767471         2.892823
 H         2.436313        -1.990095         0.124761
 H         1.815968        -1.599206         1.587942
 H        -0.430565        -0.381924         1.035657
 H        -0.590229         0.879777        -0.227889
 H        -0.450291        -0.776385        -0.711193
 H         4.048136         0.872434        -1.254132
 H         3.123673         2.278719         2.163403
