19
Iteration:  1718charge 0 multiplicity 1
 C         4.648564        -0.380596         1.719042
 C         3.404710        -0.365308         0.885871
 C         2.214235        -1.323964         0.666609
 C         1.498930        -0.048165         0.040335
 C        -0.065060         0.096526        -0.011338
 O         2.149804         0.154753        -1.267226
 C         3.237375         0.602231        -0.416645
 C         2.410328         0.927161         0.801649
 O         2.144665         2.043483         1.576022
 H         5.296661        -1.058031         1.233854
 H         5.219167         0.602702         1.618739
 H         4.514553        -0.579932         2.843498
 H         2.223335        -2.213956         0.005524
 H         1.912868        -1.490445         1.655032
 H        -0.502321         0.110329         1.015005
 H        -0.400595         1.038532        -0.593376
 H        -0.516627        -0.678547        -0.696024
 H         4.103475         1.287738        -0.747026
 H         2.104222         2.968670         0.989438
