19
Iteration:  3626
 C         4.624965        -0.468149         1.764143
 C         3.381611        -0.219261         0.853236
 C         2.238296        -1.206847         0.774958
 C         1.432927        -0.027351         0.067133
 C         0.001455         0.014258         0.009932
 O         2.102981         0.110147        -1.281698
 C         3.269092         0.574637        -0.532027
 C         2.418325         0.964659         0.710606
 O         2.120147         2.091379         1.562638
 H         5.232247        -1.261580         1.377988
 H         5.317136         0.413696         1.903527
 H         4.405283        -0.689111         2.837024
 H         2.311512        -2.162688         0.167157
 H         2.009055        -1.389426         1.870812
 H        -0.416877        -0.293658         0.980665
 H        -0.472872         0.930687        -0.388322
 H        -0.422864        -0.901716        -0.651893
 H         4.052185         1.002221        -1.090243
 H         2.862752         2.808103         1.207519
