19
Iteration:  4654
 C         4.616463        -0.479015         1.672122
 C         3.363642        -0.252859         0.845680
 C         2.247865        -1.167686         0.751651
 C         1.394004        -0.125069        -0.000962
 C        -0.045384        -0.086389        -0.026992
 O         2.170893         0.083369        -1.298278
 C         3.237260         0.641714        -0.346834
 C         2.401519         1.028286         0.811659
 O         2.223232         2.152000         1.578944
 H         5.168495        -1.320123         1.268862
 H         5.359603         0.392719         1.663137
 H         4.419476        -0.513657         2.729855
 H         2.461511        -2.069570         0.031953
 H         1.980862        -1.600583         1.688698
 H        -0.463149        -0.418637         0.869856
 H        -0.417181         0.950200        -0.149774
 H        -0.451224        -0.605376        -0.879012
 H         4.094688         1.292319        -0.671823
 H         1.813085         2.681479         0.971593
