19
Iteration:  4413charge 0 multiplicity 1
 C         4.657448        -0.438827         1.634288
 C         3.364532        -0.154123         0.948902
 C         2.120806        -1.157022         0.801634
 C         1.435263        -0.118196         0.031660
 C        -0.039682        -0.036367        -0.085995
 O         2.207996         0.016067        -1.229617
 C         3.211429         0.697188        -0.443466
 C         2.488164         1.033510         0.773524
 O         2.157449         2.035972         1.604956
 H         5.207422        -1.107498         0.946452
 H         5.432245         0.455974         1.599736
 H         4.591235        -1.040063         2.532946
 H         2.370602        -2.091976         0.219820
 H         1.661879        -1.565989         1.716955
 H        -0.602913        -0.048038         0.912838
 H        -0.219012         0.921277        -0.701742
 H        -0.512935        -0.881912        -0.694971
 H         4.113502         0.980241        -1.010921
 H         2.110209         2.893062         1.044954
