19
Iteration:  4802
 C         4.657537        -0.496366         1.654784
 C         3.395870        -0.155444         0.917711
 C         2.224151        -1.126640         0.711382
 C         1.428506        -0.088406         0.029796
 C        -0.024376        -0.108260        -0.002224
 O         2.158457         0.156485        -1.229146
 C         3.201015         0.701960        -0.425019
 C         2.446792         0.943309         0.773975
 O         2.179352         2.052214         1.529502
 H         5.123082        -1.515085         1.471393
 H         5.348743         0.257708         1.943538
 H         4.282337        -1.016553         2.578063
 H         2.476813        -1.908334         0.019347
 H         1.783426        -1.495388         1.717641
 H        -0.576928         0.115373         0.973855
 H        -0.367428         0.700418        -0.745553
 H        -0.532703        -1.072399        -0.337275
 H         4.128792         1.025953        -0.814866
 H         1.834038         2.795699         0.951830
