19
Iteration:  1421charge 0 multiplicity 1
 C         4.449300        -0.521956         1.715823
 C         3.342637        -0.162776         0.857989
 C         2.166580        -1.171337         0.683855
 C         1.427249        -0.043434         0.058363
 C        -0.057098        -0.116829        -0.037561
 O         2.220889         0.142392        -1.255675
 C         3.279580         0.701793        -0.500923
 C         2.425288         0.967001         0.770998
 O         2.357264         2.063240         1.658244
 H         4.844950        -1.468272         1.504533
 H         5.334482         0.198860         1.682104
 H         4.029254        -0.569252         2.712030
 H         2.454004        -1.944359        -0.046714
 H         1.807916        -1.744721         1.599186
 H        -0.449494        -0.416045         0.977300
 H        -0.457520         0.836874        -0.382566
 H        -0.399075        -0.886080        -0.760075
 H         4.120568         1.288529        -0.920281
 H         1.926717         2.851331         1.102926
