19
Iteration:  3440
 C         4.616832        -0.407770         1.712553
 C         3.277788        -0.203597         0.927217
 C         2.197998        -1.217245         0.704271
 C         1.435652        -0.108768         0.025013
 C        -0.054922        -0.019490        -0.009550
 O         2.186450         0.076722        -1.281499
 C         3.251351         0.643180        -0.396683
 C         2.383344         0.956922         0.756839
 O         2.269190         2.074731         1.534353
 H         5.117403        -1.292182         1.362740
 H         5.279348         0.562303         1.725916
 H         4.312398        -0.465368         2.829541
 H         2.378042        -2.160774         0.112683
 H         1.809209        -1.443471         1.733867
 H        -0.448857        -0.396064         0.894477
 H        -0.334691         0.947608        -0.297169
 H        -0.408049        -0.685659        -0.753140
 H         4.100555         1.230087        -0.904368
 H         2.463262         2.820401         1.101353
