19
Iteration:  2921charge 0 multiplicity 1
 C         4.589381        -0.453503         1.687323
 C         3.315055        -0.229539         0.964652
 C         2.273520        -1.270809         0.634101
 C         1.476443        -0.090603         0.094457
 C        -0.142261         0.016874         0.042633
 O         2.245818         0.103150        -1.245947
 C         3.270575         0.606520        -0.397058
 C         2.383962         0.964383         0.775918
 O         2.206083         2.137789         1.458526
 H         5.150017        -1.099825         1.037373
 H         4.983670         0.616011         2.010299
 H         4.361323        -1.006045         2.595838
 H         2.395667        -2.180301         0.062157
 H         2.053200        -1.597020         1.646144
 H        -0.629843         0.194083         1.098690
 H        -0.495299         0.923974        -0.655831
 H        -0.492904        -0.960676        -0.451874
 H         4.161722         1.189771        -0.735788
 H         2.141768         2.806985         0.856706
