19
Iteration:   482charge 0 multiplicity 1
 C         4.554339        -0.385275         1.586642
 C         3.299708        -0.192504         0.890363
 C         2.118647        -1.067216         0.852648
 C         1.414916         0.029488         0.077719
 C         0.014880        -0.050842        -0.242681
 O         2.155372         0.007554        -1.163105
 C         3.255265         0.602922        -0.486625
 C         2.483499         1.055846         0.676448
 O         2.299471         1.903235         1.754949
 H         5.116454        -1.294949         1.113901
 H         5.259275         0.435319         1.436534
 H         4.539334        -0.572290         2.718584
 H         2.002505        -2.102970         0.531254
 H         1.731233        -1.100200         1.884374
 H        -0.746060        -0.270329         0.556998
 H        -0.261824         0.810582        -0.859855
 H         0.029796        -0.924193        -0.936598
 H         4.193690         0.908736        -1.001329
 H         2.021144         2.886381         1.332255
