19
Iteration:  4094
 C         4.595154        -0.361514         1.663471
 C         3.334740        -0.203396         0.855906
 C         2.162193        -1.230655         0.888675
 C         1.421050        -0.114676         0.089602
 C        -0.028569        -0.085896        -0.128159
 O         2.119800         0.073979        -1.217024
 C         3.288096         0.670406        -0.526014
 C         2.396774         0.989545         0.696087
 O         2.280469         2.050013         1.648939
 H         5.020783        -1.329131         1.347920
 H         5.432092         0.557172         1.686684
 H         4.336404        -0.365892         2.708152
 H         2.287535        -2.157737         0.250261
 H         1.731060        -1.342420         1.882605
 H        -0.626660        -0.260830         0.779326
 H        -0.237698         0.927338        -0.557068
 H        -0.346439        -0.643618        -1.077815
 H         4.243026         1.130209        -0.998818
 H         2.575857         2.792408         1.088367
