19
Iteration:  4871
 C         4.774603        -0.281951         1.637207
 C         3.409750        -0.253991         0.895852
 C         2.201914        -1.360461         0.859315
 C         1.397862        -0.122026         0.029541
 C        -0.118516         0.004112        -0.191024
 O         2.086289         0.176153        -1.194581
 C         3.210482         0.598968        -0.358775
 C         2.422985         0.967473         0.768145
 O         2.271976         2.053214         1.572696
 H         5.344769        -1.193101         1.437497
 H         5.221682         0.700163         1.587404
 H         4.588905        -0.633356         2.645842
 H         2.273190        -2.228253         0.152058
 H         1.708163        -1.640986         1.722724
 H        -0.773470        -0.405862         0.578750
 H        -0.453787         1.069264        -0.414161
 H        -0.250182        -0.566510        -1.177449
 H         4.039676         1.083143        -0.922452
 H         1.838933         2.781257         1.153506
