19
Iteration:  1228
 C         4.560575        -0.432247         1.759056
 C         3.362925        -0.280742         0.837807
 C         2.160793        -1.247796         0.612396
 C         1.409283        -0.065643        -0.019258
 C        -0.152837        -0.068878        -0.012979
 O         2.210842         0.231486        -1.245079
 C         3.314347         0.688021        -0.420986
 C         2.410939         0.926894         0.829787
 O         2.301364         2.052089         1.613906
 H         4.868911        -1.473397         1.642962
 H         5.374289         0.194591         1.438373
 H         4.454007        -0.206634         2.867017
 H         2.232693        -2.282350         0.094333
 H         1.778205        -1.464149         1.598718
 H        -0.654311        -0.381664         0.974394
 H        -0.484154         0.854254        -0.503169
 H        -0.372819        -0.875051        -0.754209
 H         4.108403         1.239026        -0.892128
 H         2.566217         2.888126         1.093553
