19
Iteration:  3602
 C         4.598270        -0.401226         1.639500
 C         3.338133        -0.227992         0.879645
 C         2.260759        -1.286089         0.672090
 C         1.404609        -0.170895         0.102979
 C        -0.047414         0.116244        -0.036758
 O         2.181599         0.028900        -1.141404
 C         3.231474         0.687180        -0.410043
 C         2.457634         0.925698         0.799826
 O         2.172013         2.110513         1.499627
 H         5.106819        -1.300424         1.388025
 H         5.363997         0.516249         1.601932
 H         4.471385        -0.334728         2.724808
 H         2.508452        -2.048468        -0.115215
 H         1.825617        -1.760366         1.559813
 H        -0.528900         0.062186         0.992282
 H        -0.290473         1.042916        -0.646401
 H        -0.725226        -0.862552        -0.512927
 H         4.051020         1.138343        -0.911779
 H         2.491756         2.858542         0.915781
