19
Iteration:  3642charge 0 multiplicity 1
 C         4.674828        -0.450640         1.731866
 C         3.433243        -0.282766         0.836140
 C         2.140235        -1.129511         0.821857
 C         1.465147        -0.056688        -0.033248
 C        -0.116583        -0.115495         0.000105
 O         2.142211         0.119118        -1.265574
 C         3.233709         0.632625        -0.505903
 C         2.551828         0.991835         0.734932
 O         2.150973         2.073170         1.541490
 H         5.393119        -1.274373         1.394892
 H         5.132581         0.486659         2.049340
 H         4.243827        -0.769266         2.705704
 H         2.199193        -2.166181         0.508680
 H         1.520008        -1.037978         1.735076
 H        -0.552013        -0.226908         1.037165
 H        -0.608394         0.841301        -0.137673
 H        -0.566204        -0.691197        -0.705342
 H         4.132281         1.054752        -1.080083
 H         2.683623         2.893811         1.527751
