19
Iteration:  3122charge 0 multiplicity 1
 C         4.618817        -0.440993         1.725976
 C         3.341788        -0.295488         0.928264
 C         2.224087        -1.306066         0.657399
 C         1.455799        -0.095925         0.115412
 C        -0.046117         0.033860        -0.040617
 O         2.138827         0.164078        -1.159362
 C         3.227356         0.679646        -0.382978
 C         2.450089         0.893586         0.783014
 O         2.232990         2.137233         1.415320
 H         5.291996        -1.080615         1.302816
 H         4.999214         0.571266         1.704785
 H         4.327335        -0.808286         2.721844
 H         2.595386        -2.046363         0.012882
 H         1.730992        -1.657610         1.554524
 H        -0.517425         0.190977         0.968956
 H        -0.368664         0.903510        -0.601944
 H        -0.483901        -0.961997        -0.537445
 H         4.143212         1.139810        -0.875360
 H         1.929488         2.568123         0.709452
