19
Iteration:  2183charge 0 multiplicity 1
 C         4.656029        -0.419299         1.641598
 C         3.325201        -0.195220         0.948382
 C         2.218062        -1.195593         0.801522
 C         1.367244        -0.099554         0.049089
 C        -0.092514         0.031859        -0.222284
 O         2.142630        -0.041280        -1.239793
 C         3.204098         0.653130        -0.427261
 C         2.392410         1.019775         0.796844
 O         2.350522         2.064026         1.674876
 H         5.409938        -1.070646         1.129272
 H         5.167137         0.582182         1.564129
 H         4.481598        -0.609114         2.666790
 H         2.536672        -2.132366         0.261515
 H         1.641345        -1.591055         1.691031
 H        -0.626837         0.167690         0.720252
 H        -0.287568         0.970921        -0.754284
 H        -0.480692        -0.785356        -0.886321
 H         4.056553         1.057995        -1.049786
 H         2.222071         2.759970         1.140893
