19
Iteration:  1647
 C         4.624750        -0.312884         1.600733
 C         3.321120        -0.271822         0.872567
 C         2.089627        -1.123402         0.788363
 C         1.404941        -0.012259        -0.046807
 C        -0.114893        -0.091895        -0.190729
 O         2.174084         0.102841        -1.213313
 C         3.337273         0.620873        -0.405545
 C         2.445356         1.002692         0.790916
 O         2.326864         1.928562         1.762298
 H         4.974779        -1.368758         1.254640
 H         5.390457         0.352927         1.119302
 H         4.616631        -0.094987         2.664324
 H         2.257436        -2.116432         0.362713
 H         1.478581        -1.026438         1.727911
 H        -0.472316        -0.269223         0.826385
 H        -0.520153         0.836581        -0.532945
 H        -0.327610        -0.838952        -0.931826
 H         4.184475         1.019974        -0.937861
 H         1.965588         2.525020         1.248569
