19
Iteration:  3449
 C         4.567681        -0.326736         1.738878
 C         3.357837        -0.255439         0.941123
 C         2.192531        -1.245033         0.701845
 C         1.358359        -0.114296         0.058098
 C        -0.128172        -0.036926        -0.007800
 O         2.249260         0.144921        -1.249409
 C         3.233044         0.618791        -0.436418
 C         2.441963         0.931808         0.775834
 O         2.292691         2.087015         1.501070
 H         5.164420        -1.126682         1.345700
 H         5.338078         0.501501         1.475730
 H         4.472728        -0.661001         2.777410
 H         2.426119        -2.175334         0.016193
 H         1.555832        -1.605617         1.563914
 H        -0.695133        -0.355185         0.867222
 H        -0.541986         0.902340        -0.277747
 H        -0.437442        -0.730047        -0.830756
 H         4.163485         1.148108        -0.726785
 H         2.462971         2.788041         0.995533
