19
Iteration:  2064charge 0 multiplicity 1
 C         4.571783        -0.348544         1.756182
 C         3.331016        -0.248016         0.895534
 C         2.181495        -1.269221         0.713616
 C         1.427061         0.002544         0.070789
 C        -0.083369         0.021290        -0.045892
 O         2.158272         0.139220        -1.251766
 C         3.268113         0.574326        -0.483310
 C         2.447348         0.935235         0.747561
 O         2.281440         1.980616         1.525174
 H         5.173280        -1.315844         1.629260
 H         5.217836         0.558779         1.307067
 H         4.383847        -0.080552         2.770151
 H         2.375121        -2.161640         0.222146
 H         1.850875        -1.504169         1.741273
 H        -0.447452        -0.261234         1.007302
 H        -0.499549         1.055018        -0.236321
 H        -0.483509        -0.848012        -0.771875
 H         4.197302         1.072571        -0.695436
 H         2.331822         2.813291         1.282752
