19
Iteration:  2345
 C         4.661720        -0.349077         1.528073
 C         3.324335        -0.252189         0.928318
 C         2.087321        -1.164717         0.740291
 C         1.410568        -0.057326        -0.034694
 C        -0.046400         0.010130        -0.125600
 O         2.261476        -0.047103        -1.197382
 C         3.268239         0.604226        -0.326151
 C         2.354709         0.989220         0.785072
 O         2.249730         2.076859         1.678734
 H         5.451137        -0.843113         0.890768
 H         5.284177         0.477651         1.705285
 H         4.548777        -0.800175         2.591561
 H         2.091370        -2.119622         0.189192
 H         1.491737        -1.211967         1.679994
 H        -0.387982         0.210926         0.889037
 H        -0.371285         0.858449        -0.718465
 H        -0.470853        -0.976629        -0.435986
 H         4.047620         1.031979        -0.908674
 H         2.268571         2.788177         0.969547
