19
Iteration:  3099
 C         4.632836        -0.495419         1.794827
 C         3.342013        -0.189718         0.931765
 C         2.205092        -1.239647         0.672415
 C         1.452191        -0.103242         0.065067
 C        -0.057719        -0.045452        -0.025830
 O         2.131342         0.063374        -1.309591
 C         3.257107         0.648106        -0.456166
 C         2.406213         0.955385         0.737688
 O         2.302698         2.206497         1.556776
 H         5.202884        -1.236142         1.389313
 H         5.173534         0.462507         1.881505
 H         4.275617        -0.825897         2.765758
 H         2.381194        -2.044401        -0.015867
 H         1.900616        -1.509591         1.655559
 H        -0.449955        -0.234088         1.006721
 H        -0.475682         0.951297        -0.211121
 H        -0.574049        -0.828588        -0.747014
 H         4.128594         1.075173        -0.903069
 H         1.503341         2.776027         1.072846
