19
Iteration:   374charge 0 multiplicity 1
 C         4.562389        -0.600122         1.841441
 C         3.377825        -0.269490         0.998714
 C         2.219277        -1.237003         0.797911
 C         1.513932         0.010071         0.038499
 C        -0.032768         0.057865         0.115710
 O         2.114122         0.209084        -1.334074
 C         3.303733         0.719703        -0.516486
 C         2.559974         0.911432         0.663770
 O         2.017419         2.029342         1.363650
 H         5.304734        -1.247658         1.255234
 H         5.043775         0.326264         1.854520
 H         4.338642        -1.079767         2.837299
 H         2.480319        -2.257402         0.394683
 H         1.721202        -1.284573         1.723033
 H        -0.438126        -0.067034         1.132900
 H        -0.410216         0.923437        -0.383608
 H        -0.343163        -0.716099        -0.576040
 H         4.263409         1.056059        -0.883935
 H         2.730014         2.688143         1.375667
