19
Iteration:  2876charge 0 multiplicity 1
 C         4.691487        -0.311218         1.654615
 C         3.346965        -0.286579         0.884050
 C         2.156777        -1.246357         0.821739
 C         1.395859        -0.084251         0.091967
 C        -0.105844        -0.006059        -0.189346
 O         2.132176         0.110554        -1.219187
 C         3.260541         0.587661        -0.436846
 C         2.443913         0.947249         0.823353
 O         2.296535         2.075367         1.610807
 H         5.179568        -1.241426         1.217738
 H         5.267541         0.704691         1.332952
 H         4.446183        -0.335612         2.694640
 H         2.265452        -2.222568         0.331905
 H         1.576793        -1.581898         1.725797
 H        -0.848925        -0.365263         0.674967
 H        -0.277000         1.089573        -0.617042
 H        -0.142360        -0.701129        -1.100230
 H         4.101094         0.995945        -0.864264
 H         2.154739         2.737285         1.042400
