19
Iteration:  2002charge 0 multiplicity 1
 C         4.655571        -0.397144         1.626590
 C         3.313694        -0.121704         0.906659
 C         2.235292        -1.175009         0.746191
 C         1.374852        -0.100156         0.120834
 C        -0.072424         0.019355        -0.254722
 O         2.158339        -0.038394        -1.155543
 C         3.139721         0.630597        -0.423660
 C         2.345706         1.017576         0.735435
 O         2.396849         2.021019         1.682010
 H         5.212511        -1.199213         1.225040
 H         5.341859         0.429223         1.678262
 H         4.434051        -0.676100         2.692998
 H         2.519138        -2.136980         0.175991
 H         1.986354        -1.452248         1.802444
 H        -0.771889         0.046841         0.535723
 H        -0.184663         0.954750        -0.815926
 H        -0.461056        -0.635490        -0.955677
 H         4.123398         0.850431        -0.956464
 H         1.866624         2.871442         1.206326
