19
Iteration:  4059charge 0 multiplicity 1
 C         4.717677        -0.344934         1.572091
 C         3.314425        -0.185854         0.944171
 C         2.111535        -1.214612         0.833130
 C         1.383891        -0.049757         0.069990
 C        -0.148493        -0.039536        -0.224719
 O         2.173001         0.044785        -1.175238
 C         3.328105         0.577113        -0.362510
 C         2.407620         0.972060         0.805255
 O         2.290705         2.072951         1.580070
 H         5.313059        -1.193290         1.085008
 H         5.386284         0.576099         1.401966
 H         4.701845        -0.626730         2.652508
 H         2.306940        -2.080926         0.193733
 H         1.875785        -1.459970         1.835382
 H        -0.809231        -0.241690         0.609022
 H        -0.366462         0.985637        -0.573111
 H        -0.412444        -0.798505        -0.977265
 H         4.159691         0.982141        -0.881497
 H         1.905096         2.660305         1.027873
