19
Iteration:  3492
 C         4.590426        -0.320455         1.726826
 C         3.282975        -0.283971         0.939070
 C         2.177419        -1.262581         0.773383
 C         1.432277        -0.072723         0.112237
 C        -0.026891        -0.080520        -0.158890
 O         2.127969         0.124865        -1.246077
 C         3.181207         0.644062        -0.459704
 C         2.426715         0.941693         0.827462
 O         2.406849         2.095194         1.543788
 H         5.308995        -0.967516         1.235236
 H         5.148394         0.673274         1.647447
 H         4.367026        -0.740503         2.681532
 H         2.225805        -2.128144         0.009990
 H         1.749156        -1.627558         1.739105
 H        -0.602955        -0.321495         0.786667
 H        -0.232514         0.940050        -0.530133
 H        -0.440459        -0.844041        -0.943480
 H         4.049383         1.141098        -0.993248
 H         1.962268         2.828893         0.975490
