19
Iteration:  3976charge 0 multiplicity 1
 C         4.569837        -0.371554         1.756887
 C         3.408121        -0.224824         0.847147
 C         2.224650        -1.147645         0.682066
 C         1.497145        -0.030832         0.045259
 C         0.021483        -0.000322         0.016189
 O         2.134164         0.081159        -1.238399
 C         3.210233         0.529641        -0.521445
 C         2.417421         0.908880         0.780561
 O         2.128936         2.072870         1.554062
 H         4.989511        -1.261773         1.348066
 H         5.283546         0.466456         1.988218
 H         4.154557        -0.601562         2.753446
 H         2.330438        -2.159378         0.131809
 H         1.662986        -1.343899         1.667958
 H        -0.023712         0.165835         1.095047
 H        -0.352342         0.825174        -0.594251
 H        -0.318191        -0.977117        -0.449960
 H         4.078493         0.980196        -1.005869
 H         2.649654         2.742398         1.220913
