19
Iteration:  3392charge 0 multiplicity 1
 C         4.705349        -0.447107         1.697506
 C         3.398976        -0.231113         0.854600
 C         2.195213        -1.128120         0.866119
 C         1.411039        -0.002407         0.095633
 C        -0.091943         0.072056        -0.127006
 O         2.171320         0.071591        -1.198467
 C         3.312566         0.634275        -0.452997
 C         2.451683         0.944892         0.722821
 O         2.145322         1.960316         1.524882
 H         5.112572        -1.349985         1.193838
 H         5.448491         0.364479         1.515645
 H         4.598196        -0.554482         2.751370
 H         2.268661        -2.044103         0.170087
 H         1.670946        -1.424562         1.793095
 H        -0.562444         0.083278         0.895847
 H        -0.375521         0.890618        -0.821986
 H        -0.462720        -0.912400        -0.546552
 H         4.153204         1.114548        -0.841271
 H         1.348602         2.472842         1.278690
