19
Iteration:   817charge 0 multiplicity 1
 C         4.699486        -0.376219         1.597107
 C         3.408656        -0.262286         0.928916
 C         2.060620        -1.146507         0.916761
 C         1.369612        -0.019758         0.102342
 C        -0.053053         0.034517        -0.291826
 O         2.185552         0.037444        -1.248932
 C         3.252074         0.650839        -0.514924
 C         2.416875         0.982959         0.740773
 O         2.225641         1.924063         1.744784
 H         5.166241        -1.242038         1.221401
 H         5.263040         0.557447         1.285437
 H         4.628784        -0.413845         2.654911
 H         2.146285        -2.047462         0.299755
 H         1.758091        -1.442383         2.001211
 H        -0.718397        -0.020975         0.648513
 H        -0.216350         1.021316        -0.726345
 H        -0.264355        -0.799390        -1.015504
 H         3.968014         1.247199        -1.064597
 H         2.691969         2.646813         1.509881
