19
Iteration:  3098charge 0 multiplicity 1
 C         4.624942        -0.498074         1.798101
 C         3.344578        -0.181029         0.928341
 C         2.206686        -1.229380         0.676004
 C         1.448157        -0.100615         0.065865
 C        -0.060313        -0.048958        -0.024764
 O         2.131369         0.062672        -1.312384
 C         3.263694         0.642521        -0.455843
 C         2.399761         0.956474         0.732929
 O         2.305281         2.201356         1.560950
 H         5.220821        -1.239746         1.368552
 H         5.216615         0.495066         1.852494
 H         4.242846        -0.829105         2.733889
 H         2.407969        -2.068073        -0.004470
 H         1.898126        -1.490479         1.660651
 H        -0.446231        -0.261883         1.006359
 H        -0.475118         0.971829        -0.210859
 H        -0.562094        -0.825508        -0.750447
 H         4.122420         1.053477        -0.870374
 H         1.521181         2.743286         1.076581
