19
Iteration:   196
 C         4.588788        -0.474122         1.794358
 C         3.380680        -0.295946         0.861056
 C         2.180997        -1.230282         0.689115
 C         1.402422        -0.061767         0.050754
 C        -0.087477        -0.024414        -0.000746
 O         2.189557         0.083140        -1.258957
 C         3.241985         0.678168        -0.365372
 C         2.404001         0.938202         0.775229
 O         2.299725         2.222165         1.336694
 H         5.263612        -1.213842         1.383213
 H         5.134935         0.505202         2.037132
 H         4.249347        -0.824098         2.785609
 H         2.246054        -2.237582         0.023180
 H         1.720641        -1.688416         1.618255
 H        -0.496205        -0.195314         0.997732
 H        -0.469237         0.958665        -0.368994
 H        -0.429129        -0.773873        -0.735254
 H         4.120881         1.299439        -0.594203
 H         2.353780         2.195751         2.429216
