19
Iteration:  1817
 C         4.687402        -0.346242         1.618655
 C         3.344538        -0.219662         0.910495
 C         2.147625        -1.205384         0.764990
 C         1.404812        -0.073174         0.041481
 C        -0.091919        -0.037982        -0.273854
 O         2.101778         0.098058        -1.219665
 C         3.200225         0.615899        -0.395620
 C         2.416429         0.936635         0.844841
 O         2.371486         2.042511         1.695992
 H         5.292160        -1.115298         1.209853
 H         5.302885         0.551409         1.558832
 H         4.396895        -0.628404         2.694284
 H         2.251412        -2.199442         0.339194
 H         1.831961        -1.362160         1.753742
 H        -0.526888        -0.275095         0.672590
 H        -0.338320         0.890898        -0.827187
 H        -0.416118        -0.815404        -0.973845
 H         4.087489         0.947417        -0.863531
 H         2.094657         2.975677         1.181252
