19
Iteration:  1879charge 0 multiplicity 1
 C         4.654993        -0.346824         1.746021
 C         3.414665        -0.288765         0.836144
 C         2.154746        -1.233751         0.756794
 C         1.397738        -0.113961         0.092816
 C        -0.052968         0.022641        -0.141028
 O         2.096148         0.139748        -1.251137
 C         3.250846         0.608185        -0.509844
 C         2.501273         0.976718         0.719747
 O         2.248097         1.975084         1.653264
 H         5.176038        -1.307815         1.822023
 H         5.437026         0.503012         1.584570
 H         4.274855        -0.118394         2.704472
 H         2.282293        -2.208314         0.164803
 H         1.838768        -1.378201         1.888494
 H        -0.607944         0.006709         0.796757
 H        -0.291082         1.071050        -0.414224
 H        -0.550500        -0.638557        -0.881894
 H         4.024115         1.225059        -0.957640
 H         1.912175         2.769900         1.338839
