19
Iteration:   160
 C         4.686911        -0.488574         1.566215
 C         3.358763        -0.250874         0.961155
 C         2.172872        -1.189938         0.912992
 C         1.450964        -0.049246         0.038381
 C        -0.026847         0.074745        -0.175944
 O         2.139393         0.041165        -1.273099
 C         3.290752         0.537526        -0.408268
 C         2.478375         1.023134         0.772838
 O         2.141183         2.191373         1.571319
 H         5.170762        -1.354519         1.044736
 H         5.477947         0.344269         1.487535
 H         4.556843        -0.859152         2.612860
 H         2.436591        -2.099679         0.345519
 H         1.653523        -1.233166         1.899542
 H        -0.576282         0.104413         0.802644
 H        -0.265562         0.978649        -0.730458
 H        -0.389640        -0.848906        -0.659750
 H         4.283663         0.722431        -0.788968
 H         1.080190         1.914102         1.695228
