19
Iteration:   665
 C         4.609924        -0.324969         1.586824
 C         3.281635        -0.258271         0.967390
 C         2.130535        -1.250924         0.769498
 C         1.358161        -0.118011        -0.025178
 C        -0.102285         0.005296        -0.243016
 O         2.222748         0.079651        -1.153264
 C         3.221023         0.617572        -0.389177
 C         2.445626         0.958055         0.840922
 O         2.387862         2.044424         1.682359
 H         5.163839        -1.215967         1.254026
 H         5.179524         0.648839         1.034323
 H         4.728234        -0.077178         2.672300
 H         2.331227        -2.192445         0.203688
 H         1.565851        -1.545514         1.729507
 H        -0.819266         0.087030         0.648673
 H        -0.131267         0.921366        -0.830030
 H        -0.379332        -0.829901        -0.936262
 H         4.054846         0.920594        -1.027344
 H         2.062473         3.007224         1.203092
