19
Iteration:   494
 C         4.670806        -0.444591         1.634912
 C         3.344063        -0.130084         0.883345
 C         2.116208        -1.102662         0.860814
 C         1.436396        -0.012682         0.003922
 C        -0.051743        -0.013574        -0.257110
 O         2.196108         0.010836        -1.212733
 C         3.249157         0.554485        -0.485185
 C         2.357987         1.022696         0.759645
 O         2.276663         1.979958         1.738409
 H         5.080275        -1.447398         1.144019
 H         5.364430         0.379291         1.518121
 H         4.488780        -0.598260         2.775828
 H         2.321568        -2.100222         0.470878
 H         1.594935        -1.048635         1.776404
 H        -0.478312        -0.131953         0.772638
 H        -0.531354         0.871519        -0.704297
 H        -0.299117        -0.934259        -0.828956
 H         3.999140         1.101167        -1.113728
 H         2.279643         2.830895         1.469404
