19
Iteration:  1200
 C         4.618726        -0.476956         1.712551
 C         3.345900        -0.241158         0.887177
 C         2.224279        -1.254807         0.713217
 C         1.425372        -0.027958         0.057748
 C        -0.010851         0.040240        -0.161661
 O         2.102168         0.196442        -1.188127
 C         3.235887         0.591175        -0.499732
 C         2.419865         0.939857         0.817475
 O         2.271645         2.050148         1.645709
 H         5.110296        -1.466699         1.459543
 H         5.287946         0.453757         1.627679
 H         4.558079        -0.626143         2.808775
 H         2.361222        -2.117972         0.099369
 H         1.832963        -1.670439         1.681194
 H        -0.650844        -0.107095         0.670514
 H        -0.311143         0.945629        -0.723842
 H        -0.137681        -0.856818        -0.787725
 H         3.975356         1.154988        -1.106970
 H         1.740367         2.765456         1.126083
