19
Iteration:  4283
 C         4.574879        -0.416965         1.793040
 C         3.377774        -0.215225         0.899167
 C         2.269280        -1.321136         0.809590
 C         1.391619        -0.073059         0.064311
 C        -0.096925        -0.091641        -0.117027
 O         2.087952         0.182417        -1.283127
 C         3.273468         0.627375        -0.502419
 C         2.450811         0.951436         0.725635
 O         2.327585         2.116833         1.581739
 H         4.993681        -1.329347         1.485731
 H         5.336310         0.479905         1.753690
 H         4.435278        -0.392852         2.861973
 H         2.461197        -2.218216         0.226761
 H         1.773641        -1.387118         1.794591
 H        -0.513380        -0.376260         0.910441
 H        -0.605442         0.904403        -0.263855
 H        -0.558484        -0.702175        -0.927012
 H         4.083423         1.128408        -1.068337
 H         1.915781         2.838135         0.869975
