19
Iteration:  3114charge 0 multiplicity 1
 C         4.600800        -0.444500         1.772291
 C         3.377774        -0.346807         0.945846
 C         2.224305        -1.317637         0.673860
 C         1.418755        -0.088808         0.016533
 C        -0.050963         0.008682        -0.008349
 O         2.171322         0.122207        -1.161477
 C         3.159978         0.683236        -0.450377
 C         2.475548         1.004370         0.793932
 O         2.251423         2.178565         1.451375
 H         5.413519        -1.098789         1.262121
 H         5.165849         0.431605         1.766221
 H         4.346657        -0.872108         2.808455
 H         2.477025        -2.107978        -0.058892
 H         1.615046        -1.832903         1.470600
 H        -0.444816        -0.067971         0.998720
 H        -0.265380         0.894918        -0.581542
 H        -0.394096        -0.815785        -0.573286
 H         3.979450         1.235940        -1.048213
 H         1.727932         2.703965         0.886803
