19
Iteration:  1233
 C         4.538989        -0.449652         1.773867
 C         3.339835        -0.241098         0.849809
 C         2.135528        -1.329381         0.595884
 C         1.418664        -0.058126        -0.010128
 C        -0.150553        -0.075071         0.003924
 O         2.275019         0.241003        -1.240959
 C         3.296860         0.679962        -0.455062
 C         2.385701         0.926916         0.820909
 O         2.311308         2.075294         1.635965
 H         4.972460        -1.459331         1.591661
 H         5.347325         0.150416         1.238886
 H         4.308516        -0.085579         2.753912
 H         2.273915        -2.272217         0.113815
 H         1.790190        -1.410672         1.672912
 H        -0.481327        -0.364103         0.963324
 H        -0.606281         0.835568        -0.437728
 H        -0.369013        -0.857544        -0.738066
 H         4.025207         1.295195        -1.043750
 H         2.637411         2.928757         1.108206
