19
Iteration:  1951charge 0 multiplicity 1
 C         4.626966        -0.427725         1.639204
 C         3.338363        -0.279872         0.946186
 C         2.074574        -1.211832         0.736248
 C         1.469471        -0.004948         0.027076
 C        -0.070075        -0.073528        -0.006403
 O         2.206956         0.199822        -1.196513
 C         3.348912         0.568521        -0.338654
 C         2.427260         0.938384         0.734362
 O         2.209186         2.071127         1.477493
 H         5.385173        -0.880872         0.909492
 H         5.100191         0.508381         1.796469
 H         4.636782        -0.981734         2.660186
 H         2.245802        -2.022634         0.047995
 H         1.543677        -1.485941         1.605158
 H        -0.406954         0.013052         1.091397
 H        -0.723760         0.646675        -0.565969
 H        -0.546787        -1.003824        -0.470934
 H         4.161328         1.224604        -0.802141
 H         2.220021         2.801884         0.869038
