19
Iteration:  3991charge 0 multiplicity 1
 C         4.536123        -0.450479         1.742618
 C         3.378319        -0.208676         0.879915
 C         2.254429        -1.245701         0.802786
 C         1.433200        -0.093107         0.051605
 C        -0.037513        -0.002209         0.028913
 O         2.156118         0.080187        -1.289662
 C         3.270653         0.680823        -0.505863
 C         2.494557         1.020859         0.682685
 O         2.136759         2.035535         1.538578
 H         5.351074        -1.233565         1.388055
 H         5.111667         0.451368         1.786612
 H         4.189145        -0.768690         2.825479
 H         2.413228        -2.152381         0.271159
 H         1.919771        -1.541360         1.829555
 H        -0.624716         0.164301         0.959127
 H        -0.371490         0.875389        -0.550795
 H        -0.516766        -0.870522        -0.393976
 H         4.147107         1.083151        -1.063831
 H         2.591133         2.981906         1.257936
