19
Iteration:  2893charge 0 multiplicity 1
 C         4.728241        -0.332648         1.667491
 C         3.366748        -0.347551         0.968578
 C         2.157133        -1.289036         0.709108
 C         1.456204        -0.126101         0.039595
 C        -0.062369         0.020971        -0.176312
 O         2.109045         0.156125        -1.163244
 C         3.158835         0.585174        -0.366209
 C         2.400618         0.908410         0.851213
 O         2.297661         2.152017         1.491982
 H         5.387700        -1.168160         1.360483
 H         5.030143         0.667696         1.631511
 H         4.660575        -0.554960         2.792652
 H         2.210918        -2.153901        -0.007576
 H         1.884073        -1.668215         1.722147
 H        -0.492217         0.001725         0.748439
 H        -0.335600         0.942227        -0.502266
 H        -0.451437        -0.704439        -0.840750
 H         4.039459         1.142615        -0.855732
 H         1.951513         2.794455         0.864611
