19
Iteration:  2904charge 0 multiplicity 1
 C         4.661366        -0.368955         1.681677
 C         3.347356        -0.289075         0.931402
 C         2.226138        -1.294192         0.717648
 C         1.365228        -0.107080         0.052210
 C        -0.071237         0.030174        -0.089778
 O         2.160538         0.143799        -1.167310
 C         3.234212         0.620681        -0.312268
 C         2.377648         0.894390         0.843113
 O         2.290233         2.129509         1.421692
 H         5.390276        -0.960196         1.071051
 H         5.162218         0.564455         1.684493
 H         4.425705        -0.725461         2.728888
 H         2.495518        -1.988033        -0.119637
 H         1.675537        -1.836070         1.513104
 H        -0.481675        -0.005894         0.854041
 H        -0.214704         0.909277        -0.593205
 H        -0.551835        -0.759333        -0.615599
 H         4.093738         1.185293        -0.788375
 H         1.961854         2.672856         0.803515
