19
Iteration:  2035charge 0 multiplicity 1
 C         4.643685        -0.300967         1.672395
 C         3.356169        -0.302187         0.849640
 C         2.055111        -1.192331         0.779235
 C         1.436633        -0.062825        -0.007780
 C        -0.058089        -0.039008        -0.155184
 O         2.153839         0.127772        -1.201354
 C         3.253895         0.566309        -0.475992
 C         2.469166         0.988610         0.745424
 O         2.327847         1.993261         1.663807
 H         5.212530        -1.171006         1.671418
 H         5.165338         0.586985         1.364134
 H         4.449154        -0.035183         2.737938
 H         2.058062        -2.305385         0.456015
 H         1.629263        -1.103791         1.812319
 H        -0.490762        -0.300647         0.774389
 H        -0.386466         0.988531        -0.282333
 H        -0.516888        -0.731214        -0.760473
 H         4.290375         0.800869        -0.929173
 H         1.866340         2.699360         1.351516
