19
Iteration:  4277
 C         4.592888        -0.394563         1.729958
 C         3.349611        -0.261364         0.926862
 C         2.282842        -1.266145         0.785846
 C         1.402851        -0.075111         0.099117
 C        -0.143052        -0.092022        -0.112795
 O         2.120866         0.180607        -1.269251
 C         3.253291         0.635213        -0.447523
 C         2.450462         0.950348         0.714944
 O         2.326956         2.121849         1.544906
 H         5.151323        -1.407139         1.498716
 H         5.264450         0.376625         1.643714
 H         4.187381        -0.431532         2.817119
 H         2.511832        -2.256347         0.330445
 H         1.777967        -1.487617         1.756981
 H        -0.547260        -0.359030         0.818095
 H        -0.471622         0.920534        -0.288742
 H        -0.450075        -0.717780        -0.940237
 H         4.143663         1.063185        -0.958756
 H         1.861641         2.769218         1.043698
