19
Iteration:  2949
 C         4.634326        -0.527907         1.772675
 C         3.379532        -0.197513         0.876214
 C         2.160832        -1.143224         0.722639
 C         1.526619        -0.016790        -0.005791
 C         0.028844        -0.023063         0.068309
 O         2.156918         0.074412        -1.269051
 C         3.288609         0.618315        -0.519464
 C         2.417836         1.007271         0.702424
 O         2.080096         2.064041         1.542262
 H         5.411392        -1.148329         1.173677
 H         5.081481         0.320560         2.157391
 H         4.033505        -1.040030         2.576825
 H         2.157539        -2.224098         0.403113
 H         1.719043        -1.070287         1.770189
 H        -0.214102         0.035027         1.092005
 H        -0.439536         0.640462        -0.549105
 H        -0.310350        -0.994912        -0.134025
 H         4.109256         1.094043        -0.948957
 H         2.275627         2.830703         1.164889
