19
Iteration:   951charge 0 multiplicity 1
 C         4.612495        -0.470305         1.648016
 C         3.342494        -0.229229         0.877915
 C         2.142504        -1.235179         0.772658
 C         1.411866        -0.120990         0.065791
 C        -0.027890         0.093504        -0.065767
 O         2.237835         0.168407        -1.254645
 C         3.255677         0.619545        -0.435185
 C         2.437619         0.897359         0.752567
 O         2.178334         2.036845         1.615899
 H         5.420404        -0.786338         1.043985
 H         4.943356         0.578619         1.887130
 H         4.604751        -0.962331         2.592194
 H         2.192088        -2.231739         0.254344
 H         1.697147        -1.272018         1.824115
 H        -0.498112         0.094251         0.911339
 H        -0.295309         1.041872        -0.642490
 H        -0.458504        -0.789790        -0.639019
 H         4.233116         0.860533        -0.811070
 H         2.261177         2.784752         0.899983
