19
Iteration:  1337
 C         4.716061        -0.362887         1.544159
 C         3.287428        -0.237223         1.002517
 C         2.126500        -1.219078         0.673995
 C         1.378846        -0.048630         0.044155
 C        -0.132513         0.112548        -0.148157
 O         2.313149         0.022607        -1.250179
 C         3.278066         0.600008        -0.440917
 C         2.424210         0.918040         0.785923
 O         2.170905         2.016697         1.742426
 H         5.337936        -0.955017         0.840236
 H         5.052751         0.667546         1.781687
 H         4.845346        -1.002252         2.500002
 H         2.289959        -2.179261         0.146947
 H         1.600169        -1.286583         1.566647
 H        -0.649149         0.134623         0.811261
 H        -0.463355         1.047942        -0.545223
 H        -0.490803        -0.724151        -0.732286
 H         4.371547         0.692785        -0.660268
 H         2.274073         3.076902         1.371095
