19
Iteration:  3292charge 0 multiplicity 1
 C         4.515311        -0.388272         1.746807
 C         3.340673        -0.224076         0.811767
 C         2.204976        -1.132352         0.793008
 C         1.401269        -0.064070         0.024265
 C        -0.031557        -0.097986        -0.041634
 O         2.114438         0.132987        -1.204535
 C         3.292494         0.621519        -0.442138
 C         2.434418         0.949718         0.731960
 O         2.315485         2.016679         1.532016
 H         5.221176        -1.186403         1.255209
 H         4.947462         0.538757         2.144523
 H         4.115307        -0.793318         2.659932
 H         2.295984        -2.108965         0.186333
 H         1.997651        -1.256471         1.882013
 H        -0.461161        -0.517101         0.895716
 H        -0.463312         0.938504        -0.284003
 H        -0.129775        -0.780807        -0.885935
 H         4.070859         1.206706        -1.064632
 H         2.492325         2.851151         0.971637
