19
Iteration:  2135
 C         4.696057        -0.438892         1.646782
 C         3.370835        -0.310352         0.935818
 C         2.106130        -1.149696         0.814569
 C         1.457160        -0.023398         0.061350
 C        -0.056624        -0.029974        -0.114774
 O         2.163103         0.161969        -1.267208
 C         3.269487         0.546683        -0.430084
 C         2.501214         0.980891         0.770858
 O         2.185924         2.082374         1.586466
 H         5.341238        -0.940831         0.951792
 H         5.156530         0.477044         1.827719
 H         4.470038        -1.049995         2.599819
 H         1.974880        -2.230295         0.383728
 H         1.599331        -1.248445         1.797664
 H        -0.444014         0.081870         0.889278
 H        -0.524281         0.750649        -0.682467
 H        -0.329793        -0.956451        -0.536932
 H         4.116987         0.896892        -0.965896
 H         1.785261         2.671901         0.905874
