19
Iteration:  2063charge 0 multiplicity 1
 C         4.574145        -0.340054         1.751490
 C         3.332787        -0.252406         0.897933
 C         2.170628        -1.262934         0.723141
 C         1.429434         0.013293         0.067972
 C        -0.083060         0.020997        -0.045587
 O         2.158786         0.145593        -1.259744
 C         3.275781         0.568143        -0.486974
 C         2.448808         0.930247         0.748787
 O         2.279742         1.973174         1.531093
 H         5.171142        -1.340298         1.632129
 H         5.207868         0.563152         1.317377
 H         4.396887        -0.066598         2.779202
 H         2.379495        -2.172218         0.224662
 H         1.869636        -1.500655         1.758902
 H        -0.496870        -0.292808         1.008221
 H        -0.505056         1.043465        -0.232954
 H        -0.469007        -0.868411        -0.767670
 H         4.167546         1.064088        -0.692663
 H         2.336258         2.800199         1.234606
