19
Iteration:   269
 C         4.567811        -0.312735         1.664723
 C         3.380191        -0.285641         0.849098
 C         2.115550        -1.219930         0.793239
 C         1.367730        -0.062868         0.020836
 C        -0.173904        -0.049228        -0.157372
 O         2.175722         0.041877        -1.197147
 C         3.356553         0.645044        -0.438466
 C         2.419107         1.002165         0.740428
 O         2.430393         2.100276         1.576600
 H         5.185629        -1.178252         1.418763
 H         5.170270         0.650727         1.596292
 H         4.248521        -0.377974         2.715007
 H         2.020332        -2.202415         0.451532
 H         1.805041        -1.222165         1.873272
 H        -0.744159        -0.199134         0.786929
 H        -0.442080         0.956058        -0.511165
 H        -0.438282        -0.832083        -0.889563
 H         4.202692         0.978298        -1.040455
 H         1.765895         1.814689         2.341088
