19
Iteration:  4534
 C         4.624023        -0.245221         1.676766
 C         3.368883        -0.294438         0.868482
 C         2.157165        -1.142877         0.748421
 C         1.402875        -0.063679         0.058966
 C        -0.068329         0.005915        -0.074326
 O         2.181304         0.109388        -1.220230
 C         3.251429         0.568424        -0.496766
 C         2.428120         0.932930         0.720205
 O         2.279450         1.955468         1.670578
 H         5.332552        -0.917131         1.232382
 H         5.255382         0.724474         1.518442
 H         4.459601        -0.465849         2.708487
 H         2.275862        -2.204611         0.451697
 H         1.788855        -1.357911         1.745929
 H        -0.772927        -0.011003         0.743592
 H        -0.301971         0.808821        -0.838187
 H        -0.270229        -0.860825        -0.740085
 H         4.107833         0.812637        -1.049186
 H         1.643731         2.558885         1.494590
