19
Iteration:  3133
 C         4.601731        -0.401230         1.670994
 C         3.375944        -0.270668         0.916951
 C         2.253793        -1.276362         0.695173
 C         1.406935        -0.082637         0.091515
 C        -0.047364         0.046094        -0.030879
 O         2.132305         0.198313        -1.215406
 C         3.298239         0.576824        -0.352502
 C         2.388339         0.890258         0.861070
 O         2.200481         2.075115         1.402202
 H         5.272723        -1.056079         1.241655
 H         5.161131         0.521193         1.870043
 H         4.456506        -0.708890         2.718846
 H         2.247407        -2.083148         0.014969
 H         1.967271        -1.641067         1.677071
 H        -0.550782         0.236131         0.953876
 H        -0.207078         0.826994        -0.775155
 H        -0.564539        -0.952297        -0.455889
 H         4.240157         1.154821        -0.705671
 H         2.175304         2.801000         0.733901
