19
Iteration:  1659
 C         4.639239        -0.344846         1.575331
 C         3.314447        -0.198265         0.886380
 C         2.088575        -1.147320         0.788499
 C         1.398058        -0.076962        -0.003991
 C        -0.069081        -0.033670        -0.209895
 O         2.261671         0.080398        -1.233745
 C         3.226760         0.603232        -0.477917
 C         2.437626         0.983895         0.748805
 O         2.314579         1.955692         1.799004
 H         5.154509        -1.389889         1.592013
 H         5.327057         0.446546         1.078055
 H         4.656116        -0.128155         2.617427
 H         2.026927        -2.125575         0.373476
 H         1.740660        -1.286832         1.862863
 H        -0.598566        -0.222036         0.742670
 H        -0.367131         0.937489        -0.506713
 H        -0.542620        -0.765972        -0.832589
 H         4.124251         0.934155        -0.908893
 H         1.695887         2.846352         1.743432
