19
Iteration:   831
 C         4.626962        -0.342461         1.540204
 C         3.281886        -0.176635         0.805022
 C         2.125614        -1.167360         0.798988
 C         1.432360        -0.042921         0.082393
 C        -0.021415         0.028288        -0.258704
 O         2.164198         0.015241        -1.161134
 C         3.229039         0.581588        -0.420282
 C         2.468976         0.999791         0.784662
 O         2.248828         1.959178         1.769755
 H         5.104048        -1.322292         1.335464
 H         5.536495         0.377024         1.307459
 H         4.450494        -0.325096         2.644139
 H         2.147908        -2.148411         0.352974
 H         1.631962        -1.190689         1.767140
 H        -0.690106        -0.181401         0.558073
 H        -0.283404         0.909723        -0.885197
 H        -0.214870        -0.806121        -0.986786
 H         4.207782         0.867369        -0.846313
 H         2.633167         2.922100         1.527755
