19
Iteration:  3823
 C         4.652501        -0.278392         1.729994
 C         3.363609        -0.203017         0.961594
 C         2.180907        -1.247300         0.656501
 C         1.380342        -0.110624         0.084717
 C        -0.072603         0.024486        -0.088898
 O         2.059582         0.151101        -1.201885
 C         3.346031         0.535009        -0.328165
 C         2.339432         0.910930         0.745701
 O         2.333839         2.020315         1.484021
 H         5.257568        -1.070836         1.237525
 H         5.369130         0.633684         1.549173
 H         4.572245        -0.695916         2.759554
 H         2.423592        -1.994866        -0.056496
 H         1.803149        -1.748766         1.520589
 H        -0.615823         0.003603         0.809110
 H        -0.284044         1.004610        -0.541974
 H        -0.529038        -0.886020        -0.644585
 H         4.252906         0.998478        -0.726960
 H         2.027368         2.700685         0.937265
