19
Iteration:  2723
 C         4.685823        -0.540002         1.702244
 C         3.447381        -0.253171         0.829768
 C         2.140228        -1.166981         0.858731
 C         1.440110        -0.027619         0.038361
 C        -0.023051         0.008179        -0.065894
 O         2.184657         0.116867        -1.183702
 C         3.300866         0.578449        -0.422173
 C         2.474533         1.024238         0.696307
 O         2.050473         2.077583         1.531987
 H         5.439918        -0.944211         1.036377
 H         5.197603         0.496475         1.991853
 H         4.436429        -1.341101         2.335310
 H         2.004335        -2.047852         0.213894
 H         1.610405        -1.119050         1.832266
 H        -0.305296         0.095693         1.043143
 H        -0.515768         0.753455        -0.739984
 H        -0.369005        -0.972207        -0.477514
 H         4.170687         0.930480        -1.016734
 H         1.835412         2.822662         1.053373
