19
Iteration:  1016charge 0 multiplicity 1
 C         4.620009        -0.378129         1.615722
 C         3.307477        -0.156962         0.867236
 C         2.168015        -1.230041         0.730807
 C         1.413353        -0.128010         0.036616
 C        -0.034814         0.082146        -0.205389
 O         2.142911         0.093261        -1.210430
 C         3.292171         0.603097        -0.404171
 C         2.357292         0.946374         0.800899
 O         2.322072         1.998726         1.722408
 H         4.927297        -1.335772         1.408552
 H         5.453553         0.319142         1.305622
 H         4.490323        -0.338968         2.650063
 H         2.256947        -2.326471         0.535862
 H         1.829456        -1.210864         1.854036
 H        -0.604629        -0.166061         0.669728
 H        -0.439052         0.959984        -0.796146
 H        -0.219591        -0.836004        -0.874386
 H         4.037918         0.961041        -1.052212
 H         2.203876         2.899843         1.303549
