19
Iteration:  4054charge 0 multiplicity 1
 C         4.706647        -0.353106         1.565704
 C         3.342961        -0.189332         0.984776
 C         2.090857        -1.291244         0.817536
 C         1.376470        -0.066136         0.094385
 C        -0.142397        -0.020040        -0.225286
 O         2.177071         0.081520        -1.156396
 C         3.312498         0.560772        -0.368576
 C         2.414116         1.035888         0.775561
 O         2.285562         2.058782         1.545536
 H         5.219947        -1.153456         1.027218
 H         5.180423         0.584698         1.413713
 H         4.753832        -0.622333         2.641270
 H         2.303992        -2.094740         0.089444
 H         1.965644        -1.480369         1.944377
 H        -0.630830        -0.300821         0.750762
 H        -0.263368         0.979736        -0.646517
 H        -0.281796        -0.832731        -0.951386
 H         4.263271         0.901314        -0.867137
 H         1.728641         2.912572         1.141240
