19
Iteration:  1767
 C         4.592404        -0.561797         1.718584
 C         3.361238        -0.241056         0.888850
 C         2.193202        -1.151185         0.666261
 C         1.437314        -0.045051         0.008254
 C        -0.080232        -0.082461         0.018213
 O         2.211313         0.125671        -1.260276
 C         3.266261         0.619025        -0.467728
 C         2.399211         0.963009         0.800771
 O         2.234689         2.176325         1.571854
 H         5.510702        -0.917373         1.122623
 H         4.932296         0.374555         2.140198
 H         4.333263        -1.216764         2.547490
 H         2.721242        -1.972166         0.101589
 H         1.626056        -1.581412         1.593746
 H        -0.292699        -0.181552         1.135059
 H        -0.553804         0.790408        -0.439491
 H        -0.543289        -0.920740        -0.541055
 H         4.039030         1.268941        -0.813963
 H         1.917718         2.784352         1.057783
