19
Iteration:  2851charge 0 multiplicity 1
 C         4.614106        -0.347934         1.645968
 C         3.310973        -0.155676         0.843272
 C         2.155827        -1.094292         0.811031
 C         1.388791        -0.017640         0.025760
 C        -0.073741        -0.044396        -0.201987
 O         2.192227        -0.050742        -1.187902
 C         3.268082         0.586721        -0.502009
 C         2.391479         1.090011         0.691535
 O         2.339154         1.921798         1.759268
 H         4.969613        -1.394699         1.299944
 H         5.227889         0.415518         1.280082
 H         4.488924        -0.236418         2.732905
 H         2.235632        -2.200429         0.690104
 H         1.682999        -1.081945         1.827283
 H        -0.437410        -0.550570         0.701782
 H        -0.479586         0.946343        -0.259331
 H        -0.268490        -0.655161        -1.098513
 H         4.153468         1.047251        -1.031675
 H         2.119245         2.826427         1.446465
