19
Iteration:   626charge 0 multiplicity 1
 C         4.663011        -0.358657         1.643137
 C         3.353084        -0.261164         0.893578
 C         2.160750        -1.174813         0.821363
 C         1.415985        -0.042305         0.038160
 C        -0.170900         0.030760        -0.221580
 O         2.123539         0.090734        -1.182708
 C         3.328498         0.558000        -0.425237
 C         2.445204         0.962643         0.760504
 O         2.332736         2.006315         1.663704
 H         5.429478        -1.053215         1.269381
 H         5.085219         0.558571         1.538665
 H         4.487224        -0.573886         2.706080
 H         2.245652        -2.167857         0.337706
 H         1.763771        -1.234451         1.791221
 H        -0.911765        -0.138954         0.539379
 H        -0.316037         0.936206        -0.834006
 H        -0.405402        -0.703560        -1.002223
 H         4.243579         0.921422        -0.862197
 H         1.593112         2.587347         1.199747
