19
Iteration:  2619
 C         4.528773        -0.292827         1.729426
 C         3.356002        -0.234355         0.840745
 C         2.154421        -1.197024         0.745288
 C         1.387168        -0.044032        -0.012993
 C        -0.051080        -0.078480        -0.047625
 O         2.179796         0.106748        -1.286749
 C         3.219032         0.572398        -0.477024
 C         2.436279         0.918993         0.781171
 O         2.349528         2.034474         1.625192
 H         5.013595        -1.279969         1.922703
 H         5.332671         0.357783         1.708683
 H         4.264971         0.144704         2.755880
 H         2.250225        -2.129358         0.187138
 H         1.689400        -1.494916         1.710489
 H        -0.524448        -0.375225         0.885656
 H        -0.313470         1.004584        -0.199503
 H        -0.463480        -0.849522        -0.787437
 H         4.023572         1.044548        -0.953432
 H         2.748844         2.839483         1.131722
