19
Iteration:  3740charge 0 multiplicity 1
 C         4.636457        -0.381267         1.637891
 C         3.366986        -0.256940         0.904063
 C         2.105883        -1.225777         0.792442
 C         1.410603        -0.082124         0.057561
 C        -0.060742        -0.050232        -0.062638
 O         2.197031         0.098375        -1.235230
 C         3.246411         0.629293        -0.491347
 C         2.530278         0.995674         0.703190
 O         2.257638         2.093987         1.626177
 H         5.179373        -1.331150         1.367570
 H         5.265042         0.471213         1.585538
 H         4.368281        -0.355914         2.715821
 H         2.176452        -2.253596         0.340595
 H         1.550223        -1.241724         1.807059
 H        -0.650648        -0.001424         0.936650
 H        -0.318143         0.845730        -0.682806
 H        -0.416584        -0.865747        -0.652857
 H         4.107188         0.911974        -1.032558
 H         1.499571         2.462180         1.355889
