19
Iteration:  4515charge 0 multiplicity 1
 C         4.591893        -0.271743         1.653984
 C         3.394295        -0.234930         0.868646
 C         2.162743        -1.228264         0.797472
 C         1.428035        -0.064281         0.005263
 C        -0.067909        -0.009001        -0.127012
 O         2.144088         0.031077        -1.222511
 C         3.238991         0.651884        -0.465373
 C         2.443740         0.956291         0.697208
 O         2.306077         1.965493         1.694415
 H         5.165096        -1.161787         1.385699
 H         5.248348         0.677162         1.719982
 H         4.246350        -0.287694         2.679131
 H         2.130204        -2.109172         0.188620
 H         1.820282        -1.444658         1.843550
 H        -0.343197        -0.147540         0.923148
 H        -0.627328         0.930496        -0.434937
 H        -0.431088        -0.830343        -0.824118
 H         4.079636         1.347038        -0.857310
 H         2.069323         2.734340         1.154435
