19
Iteration:  2794
 C         4.633256        -0.301502         1.723258
 C         3.356948        -0.259405         0.879578
 C         2.135585        -1.290752         0.701365
 C         1.411849        -0.069823         0.148267
 C        -0.050742         0.000974        -0.136722
 O         2.126714         0.131431        -1.222516
 C         3.206147         0.585832        -0.421126
 C         2.450336         0.905848         0.798795
 O         2.316073         2.070621         1.532645
 H         5.273936        -1.279982         1.627655
 H         5.296735         0.484508         1.542992
 H         4.340952        -0.342697         2.830782
 H         2.346970        -2.051331        -0.115574
 H         1.847557        -1.560318         1.730536
 H        -0.529961        -0.089092         0.791786
 H        -0.317069         0.944071        -0.521447
 H        -0.439186        -0.766675        -0.795340
 H         4.127228         1.130437        -0.827640
 H         2.104421         2.703462         0.945747
