19
Iteration:  3167charge 0 multiplicity 1
 C         4.663610        -0.407009         1.616750
 C         3.301467        -0.236002         1.001933
 C         2.122620        -1.219361         0.774905
 C         1.454211        -0.101574        -0.001197
 C        -0.036637         0.022676        -0.066344
 O         2.214296         0.000963        -1.227157
 C         3.219311         0.764618        -0.457835
 C         2.524350         0.992508         0.762774
 O         2.128229         2.024881         1.582831
 H         5.242801        -1.156435         1.086672
 H         5.140949         0.514867         1.397957
 H         4.601601        -0.713595         2.698226
 H         2.082117        -2.080169         0.163387
 H         1.690098        -1.385586         1.771356
 H        -0.440196         0.437490         0.908668
 H        -0.228013         0.781254        -0.851391
 H        -0.495326        -1.028459        -0.423074
 H         4.243838         0.900775        -0.990067
 H         2.547452         2.783580         1.468697
