19
Iteration:  3355charge 0 multiplicity 1
 C         4.596701        -0.286231         1.536221
 C         3.288744        -0.291482         0.969421
 C         2.150165        -1.295437         0.777595
 C         1.421597        -0.139296         0.051844
 C        -0.080644         0.059098        -0.116988
 O         2.283441         0.074531        -1.213439
 C         3.245728         0.594900        -0.349096
 C         2.397908         0.959668         0.748938
 O         2.274844         2.092354         1.624861
 H         5.205416        -1.076391         1.082871
 H         5.084901         0.584164         1.333037
 H         4.636982        -0.593556         2.587586
 H         2.460313        -2.044365         0.117430
 H         1.812403        -1.684387         1.719812
 H        -0.587093         0.438417         0.830280
 H        -0.371361         0.899857        -0.886913
 H        -0.559553        -0.867788        -0.489770
 H         4.255360         0.959775        -0.785014
 H         1.748710         2.756794         0.991732
