19
Iteration:  2973
 C         4.609307        -0.455312         1.706244
 C         3.362836        -0.221526         0.862693
 C         2.192186        -1.160488         0.847346
 C         1.460231        -0.048703         0.110985
 C        -0.132869        -0.005141        -0.052597
 O         2.211580         0.130674        -1.250036
 C         3.300213         0.619366        -0.527469
 C         2.480673         0.984726         0.706870
 O         2.155209         1.981419         1.546096
 H         5.363348        -1.120704         1.146926
 H         5.121975         0.487596         1.790437
 H         4.167506        -0.780092         2.663383
 H         2.513885        -2.132787         0.378265
 H         1.831321        -1.385694         1.914746
 H        -0.544809         0.062096         0.980479
 H        -0.401641         0.801343        -0.749111
 H        -0.611900        -0.909643        -0.333651
 H         4.232560         1.007313        -0.884526
 H         2.046166         2.881807         0.994658
