19
Iteration:  2225charge 0 multiplicity 1
 C         4.549373        -0.320015         1.736897
 C         3.357666        -0.344807         0.933666
 C         2.187332        -1.220694         0.722818
 C         1.419666        -0.025353         0.052210
 C        -0.124296        -0.009382        -0.097003
 O         2.162304         0.158663        -1.184342
 C         3.247185         0.654378        -0.499873
 C         2.477402         0.872345         0.746396
 O         2.351721         2.022955         1.540462
 H         5.234429        -1.246486         1.670052
 H         5.333156         0.400361         1.480179
 H         4.335972        -0.067215         2.864711
 H         2.029428        -2.139932        -0.014532
 H         1.801353        -1.539397         1.776282
 H        -0.586367        -0.393272         0.818218
 H        -0.619473         0.901029        -0.345505
 H        -0.409246        -0.771613        -0.813649
 H         4.252453         1.094929        -0.785349
 H         1.895269         2.837682         1.000466
