19
Iteration:  4475charge 0 multiplicity 1
 C         4.614765        -0.350740         1.729071
 C         3.328436        -0.267920         0.889734
 C         2.261581        -1.285872         0.710599
 C         1.401551        -0.067343         0.037228
 C        -0.082792        -0.045091        -0.071846
 O         2.117453         0.147560        -1.193730
 C         3.220027         0.618510        -0.405067
 C         2.439095         0.962305         0.776700
 O         2.286056         2.086291         1.523303
 H         5.001369        -1.401998         1.502610
 H         5.328234         0.381945         1.577687
 H         4.457081        -0.506885         2.855893
 H         2.649984        -1.944250        -0.099227
 H         1.856299        -1.618649         1.666087
 H        -0.566562        -0.549767         0.779183
 H        -0.468807         0.904247        -0.280932
 H        -0.248102        -0.797202        -0.828684
 H         3.988006         1.233296        -0.965440
 H         2.209460         3.054144         1.015381
