19
Iteration:   868charge 0 multiplicity 1
 C         4.672776        -0.382825         1.692984
 C         3.370032        -0.247498         0.990739
 C         2.131908        -1.235320         0.649994
 C         1.395787        -0.075834        -0.002407
 C        -0.118836        -0.038412        -0.121396
 O         2.167660         0.168407        -1.252044
 C         3.199576         0.669753        -0.362897
 C         2.469526         0.934934         0.824149
 O         2.376618         2.034522         1.569033
 H         4.962268        -1.478274         1.496667
 H         5.404045         0.346274         1.571727
 H         4.365992        -0.400588         2.788631
 H         2.154802        -2.216169         0.117311
 H         1.575144        -1.410408         1.562673
 H        -0.680281        -0.063576         0.827041
 H        -0.398287         0.915187        -0.539780
 H        -0.392054        -0.843438        -0.762682
 H         4.111907         1.066167        -0.796606
 H         1.606463         2.604257         1.100742
