19
Iteration:  1973charge 0 multiplicity 1
 C         4.679609        -0.413797         1.611751
 C         3.345649        -0.286276         0.897414
 C         2.160273        -1.256126         0.781401
 C         1.423536        -0.049556         0.108069
 C        -0.073549        -0.032893        -0.165437
 O         2.166011         0.152217        -1.226973
 C         3.182634         0.600018        -0.389952
 C         2.459219         0.932737         0.811161
 O         2.249325         2.122221         1.583679
 H         5.543778        -0.965749         1.104349
 H         5.111133         0.535258         1.865819
 H         4.406614        -0.892070         2.626443
 H         2.307427        -2.271262         0.409761
 H         1.773964        -1.249817         1.775252
 H        -0.672328         0.133802         0.800649
 H        -0.362090         0.804769        -0.854138
 H        -0.436837        -0.939122        -0.779470
 H         4.125331         1.036276        -0.824248
 H         2.285275         2.749580         0.810559
