19
Iteration:  4176charge 0 multiplicity 1
 C         4.683797        -0.365285         1.721593
 C         3.374581        -0.193485         0.911748
 C         2.200478        -1.243024         0.693495
 C         1.411436        -0.076249         0.040824
 C        -0.083627         0.051618        -0.035773
 O         2.178034         0.073978        -1.225935
 C         3.244915         0.557791        -0.461259
 C         2.458624         0.946346         0.730718
 O         2.158523         2.066432         1.587514
 H         5.329566        -1.151067         1.250133
 H         5.262086         0.509173         1.803588
 H         4.381831        -0.796535         2.723715
 H         2.288322        -2.210474         0.175901
 H         1.808805        -1.532472         1.733072
 H        -0.510923         0.249112         0.949574
 H        -0.191354         0.917183        -0.673338
 H        -0.442532        -0.871327        -0.431147
 H         4.101109         1.016098        -0.974517
 H         1.961308         2.751594         0.932940
