19
Iteration:  3879
 C         4.639007        -0.418073         1.633128
 C         3.338586        -0.180417         0.886963
 C         2.233524        -1.122147         0.907220
 C         1.424120        -0.016507         0.110480
 C        -0.136210        -0.073540        -0.222264
 O         2.151219         0.066084        -1.204179
 C         3.270496         0.607111        -0.448431
 C         2.415045         1.014120         0.691043
 O         2.280006         1.969624         1.608121
 H         5.171402        -1.180912         0.968528
 H         5.338576         0.436354         1.785949
 H         4.443399        -0.850777         2.689208
 H         2.418037        -2.108961         0.587702
 H         1.715164        -1.141293         1.879773
 H        -0.593645        -0.252593         0.736419
 H        -0.528057         0.923500        -0.474381
 H        -0.328519        -0.788000        -1.042679
 H         4.058565         1.096220        -0.937733
 H         2.049400         2.826870         1.139549
