19
Iteration:    62
 C         4.429214        -0.366629         1.798859
 C         3.376251        -0.284585         0.789509
 C         2.191736        -1.226901         0.790064
 C         1.412444        -0.097462         0.075954
 C        -0.048665        -0.023224         0.096944
 O         2.221935         0.158524        -1.254653
 C         3.274900         0.700301        -0.454876
 C         2.359804         0.864605         0.703883
 O         2.321857         2.042809         1.362804
 H         5.289082        -1.019064         1.588423
 H         4.886394         0.706343         1.831246
 H         4.045016        -0.551739         2.826552
 H         2.093882        -2.318940         0.186293
 H         1.892977        -1.197574         1.912601
 H        -0.569881        -0.221761         1.070248
 H        -0.353878         0.963711        -0.257942
 H        -0.331517        -0.787369        -0.656508
 H         3.979564         1.467120        -0.818281
 H         3.276609         2.203430         1.458858
