19
Iteration:  1959charge 0 multiplicity 1
 C         4.654760        -0.418280         1.640866
 C         3.360107        -0.308078         0.902934
 C         2.105277        -1.166520         0.789681
 C         1.411762        -0.044156         0.033831
 C        -0.061949        -0.059505        -0.037963
 O         2.195991         0.211701        -1.210040
 C         3.318415         0.615101        -0.346630
 C         2.379948         0.913643         0.798610
 O         2.231035         2.051769         1.464252
 H         5.344966        -0.919970         0.981716
 H         5.042553         0.584236         1.785178
 H         4.694722        -1.011575         2.634724
 H         2.084697        -2.073425         0.045461
 H         1.613026        -1.495924         1.727033
 H        -0.526483        -0.054057         0.925202
 H        -0.452975         0.745666        -0.736607
 H        -0.366974        -1.011963        -0.455524
 H         4.319328         0.913153        -0.820001
 H         2.251715         2.985655         0.962309
