19
Iteration:   317charge 0 multiplicity 1
 C         4.715488        -0.453726         1.545858
 C         3.395823        -0.284523         0.888562
 C         2.129028        -1.261071         0.784549
 C         1.400969        -0.049163         0.108112
 C        -0.118826         0.138249        -0.185580
 O         2.311496         0.015566        -1.091944
 C         3.239420         0.572043        -0.384702
 C         2.439593         1.013006         0.844570
 O         2.046272         2.139593         1.429365
 H         5.189237        -1.385339         1.109655
 H         5.402662         0.416792         1.331938
 H         4.730055        -0.553578         2.679606
 H         2.282442        -2.159542         0.158737
 H         1.756424        -1.569775         1.733397
 H        -0.682131         0.319777         0.731334
 H        -0.231727         1.099590        -0.714023
 H        -0.579210        -0.715179        -0.713230
 H         4.177768         0.945858        -0.790299
 H         2.663107         2.283098         2.345990
