19
Iteration:  4578
 C         4.662947        -0.395945         1.611345
 C         3.327585        -0.183059         0.899206
 C         2.265286        -1.235699         0.712611
 C         1.417309        -0.094605         0.106929
 C        -0.072245         0.017117        -0.115811
 O         2.201446         0.024724        -1.194826
 C         3.209106         0.684175        -0.362334
 C         2.364438         0.984649         0.752986
 O         2.242198         1.990427         1.600606
 H         5.419782        -0.887211         1.099875
 H         5.183264         0.618846         1.511265
 H         4.533495        -0.712873         2.614595
 H         2.087166        -2.176333         0.185367
 H         1.715452        -1.460249         1.600195
 H        -0.504693         0.302492         0.822071
 H        -0.273681         0.797474        -0.910815
 H        -0.639948        -0.873297        -0.398840
 H         4.062339         1.250384        -0.757173
 H         2.084859         2.831604         0.979004
