19
Iteration:  1923
 C         4.559538        -0.509490         1.732949
 C         3.349977        -0.216435         0.895773
 C         2.227987        -1.227856         0.681777
 C         1.489298        -0.125010         0.013017
 C        -0.057825        -0.006733         0.047212
 O         2.203994         0.086403        -1.280472
 C         3.242095         0.657938        -0.424930
 C         2.370015         1.000148         0.738618
 O         2.232508         2.153156         1.567975
 H         5.156876        -1.219691         1.173124
 H         5.145427         0.504510         1.854125
 H         4.394603        -0.874679         2.687359
 H         2.516912        -1.950264        -0.152708
 H         1.719640        -1.689711         1.629004
 H        -0.374278         0.102939         1.071823
 H        -0.353916         1.020441        -0.287101
 H        -0.493373        -0.924880        -0.364427
 H         4.185889         0.887617        -0.836563
 H         1.804267         2.704155         0.901254
