19
Iteration:  1768charge 0 multiplicity 1
 C         4.595734        -0.564101         1.724476
 C         3.365298        -0.238883         0.876327
 C         2.192116        -1.145382         0.671608
 C         1.450783        -0.043471         0.006185
 C        -0.085801        -0.083611         0.009837
 O         2.203723         0.124779        -1.253554
 C         3.255756         0.618145        -0.466138
 C         2.401244         0.958648         0.804720
 O         2.237228         2.175867         1.573909
 H         5.513722        -0.928387         1.141218
 H         4.956298         0.398457         2.150883
 H         4.316460        -1.217382         2.506165
 H         2.695349        -1.957774         0.108884
 H         1.626675        -1.594206         1.593836
 H        -0.294330        -0.196673         1.099176
 H        -0.514170         0.778366        -0.449747
 H        -0.546389        -0.916406        -0.526379
 H         4.056676         1.271475        -0.822264
 H         1.892105         2.801939         1.036629
