19
Iteration:  2669
 C         4.622525        -0.343489         1.628331
 C         3.359765        -0.216932         0.914396
 C         2.162710        -1.249632         0.763650
 C         1.392497        -0.134325         0.066258
 C        -0.068898         0.040974        -0.227396
 O         2.147258         0.022300        -1.198891
 C         3.242100         0.570605        -0.347993
 C         2.383585         0.951156         0.797757
 O         2.336923         2.083764         1.621014
 H         5.365949        -1.033804         1.184416
 H         5.284327         0.663722         1.428059
 H         4.637313        -0.279045         2.722997
 H         2.287238        -2.125729         0.021825
 H         1.646174        -1.299474         1.786631
 H        -0.704892        -0.100672         0.680032
 H        -0.204896         1.065194        -0.606315
 H        -0.417137        -0.712258        -0.914214
 H         4.124933         1.115087        -0.804293
 H         1.960546         2.840741         1.105314
