19
Iteration:     9charge 0 multiplicity 1
 C         4.633910        -0.367780         1.743504
 C         3.334292        -0.195124         0.948970
 C         2.183966        -1.207190         0.747427
 C         1.398821        -0.002175         0.121804
 C        -0.057204        -0.022226        -0.070878
 O         2.140698         0.033235        -1.195444
 C         3.206155         0.564143        -0.453759
 C         2.481405         0.991510         0.695525
 O         2.293163         2.126383         1.402460
 H         5.090720        -1.189110         1.291922
 H         5.391797         0.469998         1.846212
 H         4.351193        -0.726181         2.717705
 H         2.189943        -1.974940         0.072866
 H         1.586967        -1.697960         1.532915
 H        -0.616235        -0.152591         0.895904
 H        -0.399146         0.912565        -0.526888
 H        -0.364088        -0.798018        -0.801296
 H         4.147842         0.965857        -0.864101
 H         2.361885         1.772422         2.214170
