19
Iteration:  1481charge 0 multiplicity 1
 C         4.619167        -0.316583         1.613045
 C         3.313293        -0.270587         0.847958
 C         2.198573        -1.330549         0.764085
 C         1.387204        -0.080597         0.085268
 C        -0.061207         0.118362        -0.282069
 O         2.155733         0.117029        -1.123959
 C         3.257424         0.637870        -0.440403
 C         2.384945         0.919874         0.812849
 O         2.303666         1.984769         1.716700
 H         5.054566        -1.416564         1.515427
 H         5.253380         0.436821         1.168833
 H         4.513860         0.083266         2.691780
 H         2.501983        -2.108690         0.025343
 H         1.985772        -1.643981         1.740129
 H        -0.624251         0.250351         0.608764
 H        -0.095958         1.079478        -0.810777
 H        -0.359309        -0.717254        -0.897517
 H         4.125541         0.906042        -0.986726
 H         1.956385         2.623790         1.155854
