19
Iteration:  3534charge 0 multiplicity 1
 C         4.636854        -0.434670         1.619624
 C         3.405521        -0.138831         0.844650
 C         2.108826        -1.072876         0.853040
 C         1.413734        -0.046574         0.051671
 C        -0.031684        -0.021046        -0.144555
 O         2.165016         0.002577        -1.259654
 C         3.277541         0.531575        -0.484204
 C         2.416725         1.010496         0.698927
 O         2.222113         2.024494         1.743631
 H         5.249499        -1.282530         1.170336
 H         5.252542         0.521095         1.655349
 H         4.280278        -0.611911         2.623655
 H         2.192138        -2.044729         0.373917
 H         1.925100        -1.222085         1.889341
 H        -0.435291        -0.121989         0.935197
 H        -0.248436         0.828974        -0.852616
 H        -0.282100        -1.102958        -0.614033
 H         4.167866         1.086553        -0.943530
 H         1.830876         2.838195         1.242142
