19
Iteration:  3213
 C         4.759221        -0.394021         1.641596
 C         3.412046        -0.291173         0.851761
 C         2.151458        -1.186633         0.824814
 C         1.379628        -0.099646         0.095813
 C        -0.138396         0.007802        -0.217717
 O         2.204225         0.084984        -1.162452
 C         3.230240         0.656745        -0.476527
 C         2.491731         0.965297         0.799169
 O         2.147249         2.049081         1.618154
 H         5.331900        -1.358305         1.445300
 H         5.419824         0.352928         1.390964
 H         4.528643        -0.507753         2.719707
 H         2.210048        -2.166731         0.338685
 H         1.545468        -1.229524         1.759657
 H        -0.612524         0.014032         0.791338
 H        -0.299070         1.080393        -0.612313
 H        -0.542663        -0.776771        -0.914831
 H         4.026238         1.051324        -1.022525
 H         2.194540         2.752896         1.082189
