19
Iteration:   651
 C         4.677874        -0.267171         1.552345
 C         3.246913        -0.337445         0.979310
 C         2.039644        -1.292162         0.801008
 C         1.441176        -0.078946         0.095611
 C         0.008196         0.026267        -0.287947
 O         2.137700         0.079433        -1.225926
 C         3.215409         0.667530        -0.357747
 C         2.391573         0.929191         0.805280
 O         2.423543         2.051130         1.651230
 H         5.377942        -1.145400         1.338959
 H         5.203374         0.675629         1.125506
 H         4.605779        -0.221809         2.666055
 H         2.102552        -2.181783         0.266331
 H         1.506596        -1.385491         1.751104
 H        -0.653370        -0.042616         0.592256
 H        -0.219951         0.895697        -0.937180
 H        -0.289708        -0.845373        -0.900145
 H         4.205855         1.109529        -0.587382
 H         1.793086         2.542020         1.323558
