19
Iteration:  1031
 C         4.615606        -0.419526         1.705469
 C         3.386561        -0.263690         0.826723
 C         2.154559        -1.129607         0.832519
 C         1.410155        -0.026467         0.028801
 C        -0.094283        -0.084562        -0.163356
 O         2.175252         0.171230        -1.260660
 C         3.219682         0.623222        -0.476871
 C         2.444837         0.989118         0.728426
 O         2.301847         1.945771         1.697225
 H         4.950744        -1.511297         1.632785
 H         5.347250         0.276132         1.401393
 H         4.356057        -0.222724         2.800794
 H         2.183707        -2.092616         0.250634
 H         1.689177        -1.298378         1.781252
 H        -0.571374        -0.178517         0.854937
 H        -0.276195         0.951495        -0.417744
 H        -0.489931        -0.805492        -0.875130
 H         4.142004         1.117248        -0.862160
 H         2.250128         2.888623         1.158443
