19
Iteration:  3408charge 0 multiplicity 1
 C         4.613804        -0.497992         1.658476
 C         3.412519        -0.145421         0.871302
 C         2.214324        -1.184411         0.795937
 C         1.439776        -0.066970         0.123509
 C        -0.116402         0.026204        -0.055616
 O         2.217879         0.046843        -1.254853
 C         3.278862         0.624167        -0.509293
 C         2.484432         1.005978         0.701871
 O         2.127417         2.017674         1.627217
 H         5.047085        -1.474770         1.443824
 H         5.378634         0.355095         1.770906
 H         4.203151        -0.557716         2.759790
 H         2.300418        -2.164276         0.344945
 H         2.077244        -1.195284         1.881004
 H        -0.726610         0.089479         0.817333
 H        -0.295861         0.970357        -0.531348
 H        -0.344950        -0.728541        -0.762440
 H         4.124321         1.035242        -1.178554
 H         1.643856         2.757316         0.953901
