19
Iteration:  3721
 C         4.630194        -0.357601         1.592608
 C         3.367172        -0.267569         0.880005
 C         2.214384        -1.233026         0.849771
 C         1.403053         0.003012         0.041800
 C        -0.009353         0.024325        -0.189884
 O         2.108280         0.100274        -1.183797
 C         3.250766         0.564633        -0.341062
 C         2.332290         0.877031         0.860257
 O         2.330972         2.067946         1.500444
 H         5.219328        -1.191477         1.192019
 H         5.310491         0.615591         1.385536
 H         4.598317        -0.394422         2.662173
 H         2.310256        -2.127543         0.220805
 H         1.954689        -1.376055         1.871143
 H        -0.570230        -0.126626         0.749597
 H        -0.377110         0.846155        -0.789021
 H        -0.502790        -0.776357        -0.722353
 H         3.982191         1.188526        -0.707222
 H         1.644814         2.579354         1.242376
