19
Iteration:   595charge 0 multiplicity 1
 C         4.537279        -0.494410         1.733841
 C         3.329315        -0.180252         0.861266
 C         2.214546        -1.114615         0.738469
 C         1.470186        -0.061034         0.044723
 C         0.010890         0.021990         0.040658
 O         2.216146         0.030977        -1.292019
 C         3.260179         0.608932        -0.495337
 C         2.343113         0.945866         0.719897
 O         2.217880         2.057158         1.608918
 H         5.287730        -1.221413         1.190318
 H         5.041869         0.508958         2.036505
 H         4.116504        -0.979048         2.677372
 H         2.246691        -2.021100         0.184161
 H         1.756081        -1.295395         1.677480
 H        -0.543844        -0.190013         0.936878
 H        -0.151371         1.053300        -0.408006
 H        -0.262437        -0.680984        -0.765618
 H         4.013195         1.219396        -0.955977
 H         2.422543         2.736281         1.123525
