19
Iteration:  4061
 C         4.722177        -0.349297         1.576217
 C         3.308600        -0.193604         0.929525
 C         2.128835        -1.177445         0.836124
 C         1.384721        -0.046783         0.061773
 C        -0.142250        -0.043221        -0.221401
 O         2.173990         0.032201        -1.179707
 C         3.316893         0.580629        -0.361681
 C         2.407825         0.942886         0.809594
 O         2.293569         2.079423         1.600351
 H         5.292426        -1.151781         1.124959
 H         5.450150         0.579047         1.414226
 H         4.676480        -0.595063         2.612773
 H         2.305552        -2.117920         0.225572
 H         1.786681        -1.466910         1.816125
 H        -0.864663        -0.210626         0.578012
 H        -0.432435         0.975102        -0.561259
 H        -0.452953        -0.788637        -1.016149
 H         4.166074         1.035595        -0.910342
 H         1.928614         2.656956         0.925194
