19
Iteration:   476charge 0 multiplicity 1
 C         4.560007        -0.357460         1.556795
 C         3.307474        -0.246716         0.865578
 C         2.064583        -1.067895         0.916507
 C         1.438558         0.022741         0.132055
 C        -0.025462        -0.080193        -0.273549
 O         2.148275         0.028791        -1.197781
 C         3.310329         0.630423        -0.479388
 C         2.511067         1.037510         0.681921
 O         2.311856         1.931173         1.750395
 H         5.016042        -1.236770         1.170011
 H         5.197317         0.545713         1.542157
 H         4.373646        -0.455803         2.613636
 H         2.026968        -2.055983         0.379358
 H         1.805289        -1.298765         1.988239
 H        -0.808696        -0.227574         0.437213
 H        -0.228211         0.879020        -0.779355
 H        -0.032427        -0.955977        -0.919901
 H         4.229981         0.801986        -1.016485
 H         1.920194         2.643244         1.442903
