19
Iteration:  4624charge 0 multiplicity 1
 C         4.674418        -0.490397         1.681899
 C         3.330412        -0.256504         0.903776
 C         2.174318        -1.176569         0.759320
 C         1.442030        -0.057281         0.043116
 C        -0.034770        -0.110036        -0.023529
 O         2.127880         0.192369        -1.186665
 C         3.285432         0.660488        -0.371811
 C         2.480917         0.984726         0.723751
 O         2.125636         2.059624         1.484693
 H         5.286468        -1.191579         1.194786
 H         5.361920         0.371559         1.596315
 H         4.459023        -0.740018         2.690787
 H         2.335285        -1.932866         0.052302
 H         1.802081        -1.653063         1.651373
 H        -0.442024        -0.265681         0.987126
 H        -0.417682         0.798525        -0.487578
 H        -0.340844        -0.989402        -0.652259
 H         4.074872         1.296700        -0.941278
 H         2.441884         2.884988         1.034688
