19
Iteration:  2265
 C         4.489065        -0.421098         1.735765
 C         3.305272        -0.181596         0.839877
 C         2.216427        -1.247652         0.738743
 C         1.409590        -0.067635        -0.025370
 C        -0.081929        -0.010513        -0.001437
 O         2.249303         0.058875        -1.254070
 C         3.261629         0.638118        -0.456938
 C         2.480931         1.026618         0.725799
 O         2.255882         2.061906         1.625906
 H         4.812432        -1.376955         1.396575
 H         5.181269         0.332118         1.507259
 H         4.337901        -0.483781         2.821834
 H         2.537754        -2.097226         0.239700
 H         1.901810        -1.436232         1.706771
 H        -0.270089        -0.371177         1.068176
 H        -0.478631         1.013074        -0.185298
 H        -0.493679        -0.777415        -0.663815
 H         4.055452         0.905012        -1.166616
 H         2.220408         2.788029         1.137603
