19
Iteration:  4009
 C         4.686501        -0.426023         1.724799
 C         3.400007        -0.248951         0.858319
 C         2.231479        -1.215098         0.778279
 C         1.410737        -0.088415         0.054558
 C        -0.142529         0.033788        -0.064761
 O         2.233124         0.070124        -1.189469
 C         3.238765         0.640713        -0.424393
 C         2.340790         0.975676         0.691565
 O         2.211697         2.051894         1.526426
 H         5.324004        -1.174598         1.305746
 H         5.327104         0.473912         1.864026
 H         4.434706        -0.873920         2.666635
 H         2.349701        -2.169425         0.164959
 H         1.710867        -1.245080         1.783584
 H        -0.529288         0.008180         0.981554
 H        -0.433814         0.985524        -0.554416
 H        -0.626161        -0.906914        -0.465880
 H         4.040927         1.268554        -0.892818
 H         2.154673         2.878769         0.824529
