19
Iteration:  3526
 C         4.617779        -0.425963         1.643363
 C         3.427256        -0.100423         0.827816
 C         2.194620        -1.070712         0.843975
 C         1.359550        -0.062525         0.002207
 C        -0.057144        -0.075006        -0.159950
 O         2.177786        -0.016489        -1.251011
 C         3.274009         0.539311        -0.474422
 C         2.371490         1.021383         0.753972
 O         2.271838         2.008877         1.723534
 H         5.089118        -1.239458         1.176496
 H         5.360436         0.428182         1.964996
 H         4.428988        -0.732203         2.688519
 H         2.164156        -2.124488         0.320847
 H         1.902566        -1.115076         1.945857
 H        -0.533758         0.131410         0.813520
 H        -0.407583         0.872741        -0.588290
 H        -0.611201        -0.883115        -0.816955
 H         3.992053         1.136367        -1.107216
 H         2.031814         2.988762         1.289908
