19
Iteration:  3687charge 0 multiplicity 1
 C         4.680517        -0.381517         1.605611
 C         3.346885        -0.253520         0.987218
 C         2.176852        -1.224698         0.739233
 C         1.357524        -0.146205         0.055931
 C        -0.083096        -0.052888        -0.193734
 O         2.128665         0.022551        -1.178904
 C         3.192491         0.595863        -0.400333
 C         2.467816         0.967788         0.824023
 O         2.268534         2.208299         1.589373
 H         5.326808        -1.035186         0.958981
 H         5.003730         0.718952         1.559660
 H         4.697409        -0.675349         2.657354
 H         2.321422        -2.058874         0.044917
 H         1.856292        -1.645904         1.689875
 H        -0.639889        -0.048736         0.777519
 H        -0.156106         1.022248        -0.333166
 H        -0.363505        -0.596677        -1.042196
 H         4.060278         0.872498        -0.932034
 H         2.721086         2.952891         1.135118
