19
Iteration:   287charge 0 multiplicity 1
 C         4.654840        -0.353731         1.622311
 C         3.274104        -0.241514         1.003641
 C         2.144150        -1.161327         0.950608
 C         1.458605        -0.077744         0.023055
 C         0.005395         0.026859        -0.214885
 O         2.144269         0.150695        -1.298368
 C         3.138480         0.525975        -0.452800
 C         2.433809         0.932471         0.758416
 O         2.323528         2.056083         1.521307
 H         5.224430        -1.237885         1.240617
 H         5.239067         0.479709         1.446135
 H         4.696680        -0.403372         2.718056
 H         2.417491        -2.222731         0.443020
 H         1.523484        -1.388092         1.832580
 H        -0.525817         0.005251         0.757693
 H        -0.219677         0.978031        -0.677639
 H        -0.403307        -0.778525        -0.828496
 H         4.041556         1.010576        -0.791156
 H         2.065789         1.703282         2.489256
