19
Iteration:  3371
 C         4.682506        -0.386089         1.583051
 C         3.301795        -0.265456         0.946157
 C         2.144558        -1.277960         0.781670
 C         1.430106        -0.101991         0.006251
 C         0.010554         0.046388        -0.119130
 O         2.199734         0.082259        -1.271635
 C         3.267067         0.589140        -0.398899
 C         2.433825         0.953839         0.848121
 O         2.205450         2.137996         1.611032
 H         5.364169        -1.182126         1.161505
 H         5.261331         0.622785         1.324360
 H         4.576592        -0.410334         2.682400
 H         2.113953        -2.388273         0.358706
 H         1.513251        -1.406142         1.722993
 H        -0.396470         0.261394         0.884200
 H        -0.060237         0.809820        -0.884602
 H        -0.647821        -0.800327        -0.389755
 H         4.145213         0.954301        -0.824099
 H         1.264751         2.580820         1.259665
