19
Iteration:  2868
 C         4.618749        -0.309669         1.580997
 C         3.344763        -0.233811         0.877148
 C         2.154207        -1.183684         0.886472
 C         1.423086        -0.062772         0.075480
 C        -0.107718        -0.025180        -0.214412
 O         2.169317         0.085017        -1.187066
 C         3.256280         0.573749        -0.440207
 C         2.432454         0.965382         0.763395
 O         2.306231         1.996956         1.642447
 H         5.058866        -1.260409         1.407329
 H         5.323856         0.624233         1.404086
 H         4.457611        -0.364273         2.689919
 H         2.261649        -2.019789         0.197061
 H         1.811600        -1.460537         1.885028
 H        -0.781489        -0.360605         0.597513
 H        -0.480848         1.006145        -0.459823
 H        -0.261311        -0.651037        -1.110381
 H         4.174945         0.960542        -0.953950
 H         2.223571         2.782873         1.207771
