19
Iteration:  4206charge 0 multiplicity 1
 C         4.672434        -0.404451         1.565573
 C         3.353248        -0.198445         0.870004
 C         2.187718        -1.228374         0.876918
 C         1.441760        -0.051581         0.039554
 C        -0.023334         0.078744        -0.150901
 O         2.182496         0.036553        -1.168369
 C         3.243025         0.585693        -0.401292
 C         2.446314         0.955911         0.728914
 O         2.113095         2.030447         1.584338
 H         5.350386        -1.052553         1.008761
 H         5.387854         0.584495         1.820790
 H         4.380757        -0.800878         2.554283
 H         2.263756        -2.285950         0.557434
 H         1.774491        -1.274686         1.936530
 H        -0.654351         0.138148         0.807661
 H        -0.313127         0.864655        -0.889468
 H        -0.257763        -0.886716        -0.704348
 H         3.881594         1.246808        -0.874317
 H         2.455946         2.800835         1.274052
