19
Iteration:  1600
 C         4.585940        -0.468290         1.724389
 C         3.394817        -0.211971         0.874019
 C         2.264150        -1.309264         0.654461
 C         1.369351        -0.083424         0.008653
 C        -0.103285        -0.052226        -0.125551
 O         2.101873         0.139145        -1.176693
 C         3.187950         0.674210        -0.412726
 C         2.402795         0.960946         0.871085
 O         2.376606         2.146916         1.566765
 H         5.231612        -1.172410         1.241220
 H         5.068211         0.385942         2.085424
 H         4.002281        -0.850344         2.645192
 H         2.512878        -2.137497        -0.142895
 H         1.961193        -1.630084         1.615151
 H        -0.462869        -0.126475         0.886006
 H        -0.405644         0.898240        -0.655175
 H        -0.255315        -0.904463        -0.792036
 H         4.043818         1.294890        -0.769100
 H         2.285304         2.810213         1.007449
