19
Iteration:   234
 C         4.471637        -0.344922         1.876836
 C         3.279395        -0.223727         0.927172
 C         2.207824        -1.288767         0.688525
 C         1.449426        -0.057769         0.063211
 C        -0.072056        -0.098310        -0.029301
 O         2.057640         0.154285        -1.285038
 C         3.235976         0.638286        -0.488519
 C         2.463937         0.932801         0.718926
 O         2.484518         2.143992         1.421506
 H         5.237295        -1.087993         1.586141
 H         4.980962         0.568861         1.999970
 H         4.116528        -0.657014         2.861138
 H         2.341755        -2.095817        -0.039936
 H         1.780224        -1.575762         1.658818
 H        -0.628618        -0.494967         0.845483
 H        -0.419318         0.891135        -0.304692
 H        -0.327996        -0.696726        -0.916777
 H         4.137923         1.005679        -0.991369
 H         2.533340         1.949384         2.511406
