19
Iteration:  4208
 C         4.674050        -0.386689         1.554675
 C         3.333927        -0.190708         0.878418
 C         2.195129        -1.224233         0.875955
 C         1.437300        -0.053056         0.041664
 C        -0.019628         0.070103        -0.153602
 O         2.184683         0.048339        -1.161369
 C         3.254252         0.565908        -0.406209
 C         2.430874         0.943213         0.737847
 O         2.114729         2.020491         1.582150
 H         5.313797        -1.105806         0.963606
 H         5.363012         0.520287         1.835204
 H         4.387262        -0.824483         2.575530
 H         2.284913        -2.265587         0.531490
 H         1.831604        -1.205962         1.981653
 H        -0.638513         0.134976         0.758956
 H        -0.323661         0.841817        -0.871179
 H        -0.303644        -0.817107        -0.717831
 H         3.949915         1.267415        -0.877611
 H         2.526077         2.913984         1.235437
