19
Iteration:  2862
 C         4.578847        -0.322081         1.575825
 C         3.327459        -0.180187         0.882269
 C         2.164402        -1.158832         0.868876
 C         1.382837        -0.030007         0.074471
 C        -0.075517        -0.029973        -0.231941
 O         2.185080         0.047495        -1.170134
 C         3.253112         0.572259        -0.431104
 C         2.436017         0.981663         0.705420
 O         2.315298         1.950931         1.679537
 H         5.245524        -1.247875         1.393209
 H         5.309021         0.375837         1.394730
 H         4.478923        -0.270911         2.664975
 H         2.283500        -2.079661         0.227936
 H         1.906824        -1.220477         1.946718
 H        -0.621503        -0.452319         0.620711
 H        -0.498928         0.945962        -0.389071
 H        -0.400635        -0.643979        -1.082518
 H         4.123943         0.937601        -1.003312
 H         2.219017         2.942352         1.247198
