19
Iteration:  2488
 C         4.656824        -0.390640         1.610307
 C         3.399255        -0.252095         0.922052
 C         2.242090        -1.196793         0.831214
 C         1.425179        -0.065042         0.112119
 C        -0.061733         0.080272        -0.187242
 O         2.124865         0.030222        -1.179914
 C         3.241422         0.591699        -0.425388
 C         2.381681         0.924299         0.781767
 O         2.160855         2.070025         1.546710
 H         5.445123        -1.055388         1.105712
 H         5.222208         0.533390         1.613372
 H         4.361080        -0.856425         2.643991
 H         2.410648        -2.049918         0.238543
 H         1.758597        -1.392978         1.789637
 H        -0.641685         0.077135         0.769458
 H        -0.396600         0.956303        -0.842030
 H        -0.321368        -0.859093        -0.889120
 H         4.103229         1.190022        -0.879447
 H         2.919334         2.809080         1.338842
