19
Iteration:   337
 C         4.660622        -0.590814         1.611504
 C         3.370737        -0.273351         0.920953
 C         2.221283        -1.192864         0.743991
 C         1.454408        -0.052371         0.081196
 C        -0.030370         0.170949        -0.022483
 O         2.227708        -0.029629        -1.238691
 C         3.367050         0.627964        -0.355712
 C         2.369126         0.979966         0.770266
 O         1.947732         2.182377         1.422874
 H         5.162695        -1.417963         1.098610
 H         5.355946         0.332875         1.682757
 H         4.621349        -0.831407         2.694193
 H         2.335930        -2.062560         0.178320
 H         1.888631        -1.496271         1.748031
 H        -0.600955         0.187707         0.906548
 H        -0.305717         1.098805        -0.580967
 H        -0.357381        -0.765468        -0.521376
 H         4.239308         1.243191        -0.646991
 H         2.744371         2.494653         1.978673
