19
Iteration:  4348charge 0 multiplicity 1
 C         4.647304        -0.297797         1.748406
 C         3.311544        -0.237688         0.900514
 C         2.174906        -1.250482         0.747297
 C         1.456479        -0.060299        -0.018895
 C        -0.054736        -0.012341        -0.068610
 O         2.117212         0.074492        -1.289993
 C         3.217701         0.586888        -0.434633
 C         2.425947         0.907196         0.790617
 O         2.327765         2.019385         1.621180
 H         5.326929        -0.932704         1.263279
 H         5.141716         0.788048         1.484381
 H         4.611208        -0.264781         2.813579
 H         2.191241        -2.143780         0.104450
 H         1.585895        -1.584450         1.629754
 H        -0.336634         0.277043         1.015942
 H        -0.391589         0.849409        -0.784601
 H        -0.513503        -0.790508        -0.763062
 H         4.204712         1.044629        -0.763142
 H         1.770656         2.880317         1.216848
