19
Iteration:  2276charge 0 multiplicity 1
 C         4.539453        -0.442108         1.689034
 C         3.366608        -0.209466         0.859239
 C         2.212630        -1.245304         0.750782
 C         1.483984        -0.039063         0.088525
 C        -0.084165         0.020479        -0.045061
 O         2.205205         0.044085        -1.209655
 C         3.263457         0.678387        -0.503798
 C         2.402440         0.971221         0.736950
 O         2.257140         2.044381         1.569540
 H         5.099117        -1.306758         1.467150
 H         5.334572         0.249463         1.738712
 H         4.146884        -0.500764         2.714966
 H         2.369179        -2.105227         0.180938
 H         1.822872        -1.483827         1.684017
 H        -0.651755        -0.143956         0.938940
 H        -0.575055         0.963189        -0.404976
 H        -0.444972        -0.766826        -0.718063
 H         4.139426         1.291485        -0.836895
 H         2.011973         2.836567         1.057951
