19
Iteration:  3067charge 0 multiplicity 1
 C         4.555775        -0.402799         1.697438
 C         3.360916        -0.209203         0.856401
 C         2.107535        -1.156542         0.856287
 C         1.421363        -0.042618         0.084887
 C        -0.074379        -0.097787        -0.107634
 O         2.177695         0.058223        -1.219969
 C         3.298958         0.701862        -0.576096
 C         2.482299         1.028215         0.684326
 O         2.283138         1.990162         1.642093
 H         5.161377        -1.181582         1.399699
 H         5.208988         0.425194         1.589772
 H         4.227138        -0.496223         2.756329
 H         2.084571        -2.156702         0.492432
 H         1.798665        -1.197797         1.896293
 H        -0.342060        -0.665244         0.793110
 H        -0.491224         0.892427        -0.177901
 H        -0.408156        -0.772249        -1.006769
 H         4.149319         1.074452        -1.088071
 H         2.268221         2.710814         1.133924
