19
Iteration:  3864
 C         4.686926        -0.421266         1.638598
 C         3.377706        -0.172072         0.872992
 C         2.072567        -1.163869         0.869264
 C         1.405451        -0.139326        -0.044329
 C         0.005500        -0.043855        -0.120708
 O         2.165570         0.047899        -1.241335
 C         3.233754         0.596462        -0.474405
 C         2.383869         0.989934         0.779860
 O         2.280041         2.093388         1.678352
 H         5.315632        -1.114788         1.161327
 H         5.258566         0.617670         1.854766
 H         4.469773        -0.787627         2.606955
 H         2.044910        -2.220297         0.361553
 H         1.713397        -1.049779         1.884106
 H        -0.477407        -0.481775         0.755306
 H        -0.322243         0.903865        -0.559427
 H        -0.365280        -0.784792        -0.914512
 H         4.047545         1.138142        -1.059220
 H         2.055024         3.024547         1.155760
