19
Iteration:  3601charge 0 multiplicity 1
 C         4.608920        -0.397254         1.643293
 C         3.331607        -0.235971         0.878086
 C         2.256568        -1.294831         0.670015
 C         1.405662        -0.172097         0.097067
 C        -0.048272         0.118772        -0.044046
 O         2.184935         0.028619        -1.140676
 C         3.230286         0.687069        -0.410762
 C         2.447211         0.921947         0.808733
 O         2.171803         2.115605         1.506057
 H         5.128387        -1.320698         1.390054
 H         5.363041         0.514110         1.599937
 H         4.516307        -0.317355         2.715471
 H         2.490684        -2.041571        -0.102391
 H         1.872427        -1.751814         1.563846
 H        -0.524756         0.085550         1.003745
 H        -0.326048         1.039454        -0.642050
 H        -0.730504        -0.836457        -0.498505
 H         4.077335         1.158260        -0.936362
 H         2.494806         2.887994         0.846774
