19
Iteration:  4537
 C         4.632460        -0.246815         1.663629
 C         3.379025        -0.316215         0.885912
 C         2.172165        -1.167094         0.746691
 C         1.407923        -0.089541         0.040947
 C        -0.078801         0.009520        -0.082643
 O         2.175940         0.121720        -1.209021
 C         3.230349         0.556705        -0.490738
 C         2.437265         0.959646         0.700003
 O         2.280449         1.969000         1.689335
 H         5.284696        -1.004920         1.201909
 H         5.149315         0.773429         1.613146
 H         4.531578        -0.421676         2.731201
 H         2.268304        -2.146088         0.370274
 H         1.790670        -1.227779         1.800311
 H        -0.777217         0.089942         0.762593
 H        -0.301036         0.810872        -0.827230
 H        -0.256507        -0.894969        -0.745320
 H         4.199474         0.772853        -1.089580
 H         1.505424         2.578846         1.426864
