19
Iteration:  2441
 C         4.523569        -0.380619         1.712746
 C         3.292410        -0.228838         0.951577
 C         2.206992        -1.245408         0.749945
 C         1.427700        -0.001117        -0.044064
 C        -0.019583        -0.056310        -0.006001
 O         2.180237         0.109869        -1.265447
 C         3.241078         0.540230        -0.446737
 C         2.430945         0.990701         0.745631
 O         2.285023         2.063890         1.558012
 H         5.075730        -1.331476         1.546202
 H         5.249023         0.313068         1.306971
 H         4.393536        -0.237212         2.851605
 H         2.557125        -2.093057         0.146605
 H         1.819974        -1.565181         1.696317
 H        -0.293457        -0.457730         1.051882
 H        -0.435288         0.992688        -0.074104
 H        -0.447362        -0.604473        -0.910194
 H         4.010097         1.048981        -0.953463
 H         2.245324         2.990266         1.187747
