19
Iteration:  2869charge 0 multiplicity 1
 C         4.632693        -0.304712         1.586259
 C         3.345221        -0.242500         0.875457
 C         2.153624        -1.187026         0.885622
 C         1.425316        -0.067260         0.076204
 C        -0.115686        -0.022619        -0.210255
 O         2.165600         0.089144        -1.190873
 C         3.255683         0.574085        -0.441072
 C         2.432329         0.964990         0.773809
 O         2.305404         2.001105         1.639804
 H         5.035214        -1.260259         1.389898
 H         5.278854         0.605445         1.408150
 H         4.448333        -0.368850         2.698703
 H         2.259185        -2.046982         0.202655
 H         1.785532        -1.497111         1.857627
 H        -0.769260        -0.338095         0.564867
 H        -0.449477         0.974848        -0.466309
 H        -0.230519        -0.639301        -1.093361
 H         4.202153         0.977112        -0.956884
 H         2.212858         2.826877         1.157209
