19
Iteration:   331charge 0 multiplicity 1
 C         4.677199        -0.542813         1.541788
 C         3.374617        -0.295191         0.888299
 C         2.230221        -1.170406         0.778354
 C         1.409032        -0.026271         0.123921
 C        -0.083966         0.165050        -0.085401
 O         2.270066        -0.046816        -1.204853
 C         3.382750         0.609190        -0.286330
 C         2.377144         0.944318         0.768833
 O         1.973463         2.193195         1.441457
 H         5.269875        -1.440445         1.189108
 H         5.285498         0.294162         1.551161
 H         4.407334        -0.707683         2.611437
 H         2.247010        -2.033342        -0.048848
 H         1.950578        -1.570719         1.764646
 H        -0.571927         0.197599         0.912412
 H        -0.289513         1.045636        -0.657835
 H        -0.518939        -0.689048        -0.610012
 H         4.178538         1.159750        -0.767239
 H         2.591392         2.457182         2.002197
