19
Iteration:  3683charge 0 multiplicity 1
 C         4.665166        -0.356711         1.585567
 C         3.324755        -0.258193         0.965175
 C         2.189992        -1.241290         0.747852
 C         1.380748        -0.082126         0.030333
 C        -0.066648        -0.044009        -0.161321
 O         2.129838         0.011299        -1.178252
 C         3.181861         0.571474        -0.390614
 C         2.450889         0.996923         0.820121
 O         2.260313         2.195780         1.587897
 H         5.376580        -1.021899         1.031849
 H         5.102403         0.580218         1.610208
 H         4.534848        -0.798773         2.633101
 H         2.342652        -2.132573         0.084915
 H         1.788187        -1.626513         1.771454
 H        -0.570543        -0.264763         0.805939
 H        -0.166564         1.038763        -0.391818
 H        -0.297557        -0.702507        -1.025570
 H         4.139092         0.944771        -0.938052
 H         2.835988         2.898342         1.195373
