19
Iteration:  1192charge 0 multiplicity 1
 C         4.585297        -0.430070         1.691531
 C         3.350246        -0.289321         0.884892
 C         2.218803        -1.267958         0.714002
 C         1.430294        -0.088792         0.071621
 C        -0.056222         0.044135        -0.151375
 O         2.109754         0.129581        -1.204628
 C         3.269351         0.665364        -0.445130
 C         2.483599         0.958914         0.770291
 O         2.259623         2.091924         1.689119
 H         5.064446        -1.233764         1.076463
 H         5.476649         0.350583         1.586675
 H         4.501692        -0.818694         2.732027
 H         2.311840        -2.131187         0.074447
 H         1.755052        -1.399543         1.711880
 H        -0.861910         0.012558         0.599042
 H        -0.193139         0.946058        -0.748253
 H        -0.260943        -0.722518        -0.905195
 H         4.150421         1.051711        -1.000443
 H         1.628458         2.556954         1.192901
