19
Iteration:  2678charge 0 multiplicity 1
 C         4.699777        -0.387794         1.630514
 C         3.302286        -0.201416         0.940936
 C         2.159997        -1.241203         0.762763
 C         1.383005        -0.118657         0.029846
 C        -0.025161         0.030108        -0.185363
 O         2.197545        -0.008075        -1.153529
 C         3.211042         0.616509        -0.432932
 C         2.337967         0.965667         0.774846
 O         2.323657         2.116923         1.626903
 H         5.273606        -1.155710         1.164873
 H         5.128687         0.637138         1.509401
 H         4.483167        -0.707095         2.598205
 H         2.365013        -2.210599         0.296059
 H         1.703262        -1.390970         1.753272
 H        -0.596247         0.048845         0.784194
 H        -0.061160         1.014996        -0.677101
 H        -0.367474        -0.636962        -1.024113
 H         4.053921         1.146258        -1.019587
 H         1.711451         2.809153         1.292193
