19
Iteration:  2355
 C         4.698004        -0.368051         1.606723
 C         3.324427        -0.251711         0.867500
 C         2.059797        -1.214320         0.808077
 C         1.448993        -0.034031        -0.044482
 C        -0.099829         0.009523        -0.107308
 O         2.250223        -0.043431        -1.255580
 C         3.254163         0.640151        -0.389924
 C         2.430449         1.033717         0.779799
 O         2.231932         2.066536         1.672634
 H         5.284678        -1.140444         1.103243
 H         5.049989         0.603035         1.673190
 H         4.661056        -0.869031         2.642331
 H         2.242649        -2.148475         0.363050
 H         1.723795        -1.411404         1.802784
 H        -0.518413         0.134289         0.922747
 H        -0.569870         0.756002        -0.757371
 H        -0.527728        -0.910714        -0.580984
 H         4.072645         1.149600        -0.892171
 H         2.334066         2.941210         1.297259
