19
Iteration:  2243charge 0 multiplicity 1
 C         4.616051        -0.374033         1.780537
 C         3.298219        -0.196950         0.886957
 C         2.105650        -1.220990         0.695383
 C         1.472599        -0.026081        -0.034239
 C        -0.071186        -0.065918         0.016171
 O         2.170926         0.120595        -1.336798
 C         3.286460         0.545740        -0.413796
 C         2.412372         0.974344         0.713552
 O         2.322417         2.033868         1.626430
 H         5.041507        -1.357914         1.715421
 H         5.304281         0.405514         1.546830
 H         4.361692        -0.178864         2.878741
 H         2.433177        -2.033681         0.148619
 H         1.532444        -1.359792         1.535245
 H        -0.419841        -0.492734         1.021702
 H        -0.451939         0.981773        -0.118027
 H        -0.511214        -0.778148        -0.690444
 H         4.120719         1.008375        -0.945810
 H         2.114867         2.959411         1.024668
