19
Iteration:   493
 C         4.660699        -0.442937         1.635565
 C         3.336499        -0.125278         0.882511
 C         2.121124        -1.103494         0.852976
 C         1.433193        -0.005112         0.009920
 C        -0.038787        -0.013103        -0.254356
 O         2.193614         0.009260        -1.200568
 C         3.242074         0.551805        -0.489824
 C         2.367243         1.029463         0.756169
 O         2.278953         1.963526         1.738103
 H         5.090054        -1.417681         1.147411
 H         5.347546         0.381595         1.477665
 H         4.505536        -0.613467         2.768192
 H         2.300916        -2.121859         0.475765
 H         1.570834        -0.983031         1.790501
 H        -0.485316        -0.152865         0.778113
 H        -0.518569         0.844758        -0.745355
 H        -0.252499        -0.931276        -0.861507
 H         4.005920         1.092261        -1.104072
 H         2.268669         2.897965         1.453314
