19
Iteration:  1946
 C         4.645025        -0.438422         1.631685
 C         3.290738        -0.271970         0.978395
 C         2.105763        -1.243270         0.678571
 C         1.440416         0.017895         0.008968
 C        -0.097924        -0.077654         0.011145
 O         2.226290         0.171376        -1.208295
 C         3.336653         0.556661        -0.363436
 C         2.477497         0.981378         0.737949
 O         2.196249         2.086618         1.504982
 H         5.315288        -0.996690         1.024034
 H         5.077118         0.580870         1.921929
 H         4.533404        -0.947218         2.574754
 H         2.349199        -2.181350         0.057942
 H         1.529218        -1.450237         1.649786
 H        -0.311186         0.022105         1.039903
 H        -0.632366         0.800821        -0.401307
 H        -0.368863        -1.060778        -0.311896
 H         4.045179         1.260568        -0.719924
 H         2.183124         2.811012         0.708453
