19
Iteration:  2113
 C         4.637317        -0.497989         1.713247
 C         3.376695        -0.240374         0.883433
 C         2.221578        -1.210978         0.760687
 C         1.434864        -0.074716         0.066235
 C        -0.098707         0.032060        -0.055680
 O         2.152837         0.100137        -1.154241
 C         3.241652         0.667684        -0.429009
 C         2.404816         0.971272         0.729539
 O         2.263701         2.065919         1.487785
 H         5.257856        -1.177839         1.183442
 H         5.193578         0.373097         1.840281
 H         4.238018        -0.905574         2.697693
 H         2.500060        -2.122864         0.081138
 H         1.946333        -1.655950         1.722289
 H        -0.654188         0.192509         0.845484
 H        -0.295560         0.879464        -0.695603
 H        -0.404470        -0.774184        -0.637178
 H         4.086805         1.172215        -0.885595
 H         1.708051         2.859777         0.983312
