19
Iteration:  1023charge 0 multiplicity 1
 C         4.596813        -0.387847         1.666823
 C         3.353671        -0.211061         0.854533
 C         2.162758        -1.173958         0.768365
 C         1.383831        -0.076901         0.049635
 C        -0.031197        -0.025798        -0.189590
 O         2.177666         0.158157        -1.238016
 C         3.220957         0.581693        -0.449648
 C         2.385227         0.971008         0.763055
 O         2.311867         1.957863         1.703882
 H         5.047836        -1.457726         1.464987
 H         5.560206         0.180614         1.421145
 H         4.484056        -0.254849         2.795400
 H         2.158592        -2.178067         0.393342
 H         1.910516        -1.062986         1.819977
 H        -0.540102        -0.150829         0.787829
 H        -0.369111         0.918325        -0.587389
 H        -0.479703        -0.715882        -0.891836
 H         4.116613         0.997199        -0.981215
 H         2.270495         2.999509         1.258759
