19
Iteration:  4639
 C         4.634676        -0.467378         1.650332
 C         3.411824        -0.203695         0.905500
 C         2.204207        -1.277262         0.695854
 C         1.439371        -0.043977         0.086177
 C        -0.114474        -0.093221        -0.016410
 O         2.244673         0.155776        -1.205470
 C         3.253142         0.705785        -0.453827
 C         2.394746         0.934588         0.796261
 O         2.172164         2.123868         1.521286
 H         5.075008        -1.492595         1.329025
 H         5.263708         0.416740         1.634857
 H         4.399598        -0.806724         2.742174
 H         2.340602        -2.254684         0.146597
 H         1.690984        -1.287117         1.696994
 H        -0.511374        -0.481120         0.981547
 H        -0.601411         0.872934        -0.248338
 H        -0.398970        -0.878032        -0.751919
 H         4.112340         1.076030        -0.929349
 H         2.138374         2.969895         0.869495
