19
Iteration:  4228
 C         4.681360        -0.435989         1.569965
 C         3.331172        -0.185352         0.951824
 C         2.194111        -1.166138         0.868419
 C         1.404767        -0.123501         0.069867
 C        -0.087387         0.001694        -0.185052
 O         2.206218         0.071365        -1.231308
 C         3.263049         0.581352        -0.374242
 C         2.412909         0.967555         0.782607
 O         2.157299         2.084042         1.606190
 H         5.336584        -0.942087         0.888998
 H         5.234270         0.669699         1.383114
 H         4.733309        -0.727318         2.640024
 H         2.355958        -2.109103         0.320430
 H         1.594873        -1.567044         1.718897
 H        -0.624719        -0.028593         0.846476
 H        -0.203808         1.020092        -0.671113
 H        -0.448369        -0.809205        -0.881182
 H         4.163597         0.672163        -0.901666
 H         2.493694         2.918535         0.957152
