19
Iteration:  4169
 C         4.621145        -0.362367         1.703692
 C         3.404401        -0.200190         0.912094
 C         2.220246        -1.287326         0.727792
 C         1.445269        -0.085847         0.024565
 C        -0.085725         0.075803        -0.024536
 O         2.143185         0.086744        -1.237943
 C         3.297012         0.551828        -0.414680
 C         2.419854         0.989150         0.763307
 O         2.194589         2.041336         1.539151
 H         5.216039        -1.171166         1.249806
 H         5.176959         0.560163         1.801161
 H         4.391142        -0.708080         2.705808
 H         2.521519        -2.126309         0.083843
 H         1.673229        -1.500162         1.597230
 H        -0.462338         0.188422         0.974187
 H        -0.440710         0.903172        -0.682735
 H        -0.476219        -0.906049        -0.403636
 H         4.116199         1.100188        -0.995173
 H         1.871805         2.697027         1.034681
