19
Iteration:  3806
 C         4.668483        -0.340770         1.766559
 C         3.344378        -0.344239         0.928029
 C         2.237672        -1.299501         0.677513
 C         1.455573        -0.104308         0.033687
 C        -0.096847         0.030796        -0.064925
 O         2.107816         0.138428        -1.244102
 C         3.156932         0.625852        -0.463184
 C         2.480310         0.906228         0.850603
 O         2.277056         2.107569         1.523642
 H         5.440806        -1.124812         1.578466
 H         5.102954         0.615181         1.650564
 H         4.378441        -0.363172         2.829814
 H         2.402895        -2.182653        -0.004273
 H         1.705252        -1.658122         1.621693
 H        -0.534779         0.212843         0.973473
 H        -0.366938         0.966267        -0.594279
 H        -0.452322        -0.803074        -0.617427
 H         3.921427         1.159352        -0.973308
 H         2.144342         2.810222         0.814831
