19
Iteration:  3649charge 0 multiplicity 1
 C         4.642584        -0.433300         1.689686
 C         3.351043        -0.286771         0.842816
 C         2.137574        -1.097442         0.828402
 C         1.441009        -0.036041         0.026186
 C        -0.114036        -0.141123         0.012359
 O         2.191934         0.122421        -1.257661
 C         3.250218         0.652240        -0.484946
 C         2.543556         0.998307         0.724570
 O         2.185210         2.034263         1.511491
 H         5.403347        -1.140861         1.330434
 H         5.138982         0.456139         2.014608
 H         4.361924        -0.828337         2.722623
 H         2.119074        -2.156449         0.430848
 H         1.717847        -1.017882         1.905789
 H        -0.631897        -0.426687         0.911645
 H        -0.422231         0.902438        -0.264163
 H        -0.727961        -0.741568        -0.771295
 H         4.129839         1.115560        -0.998412
 H         2.710889         2.720892         1.468639
