19
Iteration:   863charge 0 multiplicity 1
 C         4.678347        -0.384129         1.679564
 C         3.348192        -0.229284         0.962778
 C         2.113566        -1.243742         0.685158
 C         1.400360        -0.100690         0.009213
 C        -0.126629        -0.020388        -0.139693
 O         2.170688         0.162654        -1.260565
 C         3.214471         0.624600        -0.387821
 C         2.476497         0.981586         0.829262
 O         2.364379         2.031051         1.603974
 H         4.978956        -1.394110         1.497444
 H         5.528206         0.389298         1.490155
 H         4.387960        -0.357723         2.728760
 H         2.200113        -2.149687         0.079854
 H         1.568455        -1.454315         1.641917
 H        -0.669501        -0.151721         0.804194
 H        -0.442978         0.924906        -0.660052
 H        -0.437287        -0.874115        -0.822675
 H         4.175598         1.126773        -0.606634
 H         1.756945         2.568975         1.183103
