19
Iteration:  3128
 C         4.605019        -0.425539         1.686178
 C         3.338331        -0.265758         0.922659
 C         2.236283        -1.281020         0.669836
 C         1.448880        -0.093409         0.134216
 C        -0.047577         0.029273        -0.045227
 O         2.124047         0.184257        -1.188753
 C         3.287244         0.644897        -0.366611
 C         2.418232         0.858829         0.822628
 O         2.220518         2.101361         1.406181
 H         5.333126        -1.214532         1.247915
 H         5.016721         0.659526         1.892815
 H         4.427148        -0.702599         2.735670
 H         2.472958        -2.142811        -0.060073
 H         1.868186        -1.620519         1.660606
 H        -0.535213         0.242521         0.900604
 H        -0.356396         0.896697        -0.679910
 H        -0.495432        -0.837989        -0.429984
 H         4.157699         1.082326        -0.731817
 H         2.017498         2.721348         0.592892
