19
Iteration:  2156
 C         4.640499        -0.413713         1.520449
 C         3.308522        -0.231554         0.900328
 C         2.082888        -1.179334         0.860495
 C         1.406711         0.007016         0.043112
 C        -0.063297        -0.027314        -0.146989
 O         2.251090         0.051622        -1.225075
 C         3.361345         0.581513        -0.375809
 C         2.367131         1.012172         0.739999
 O         2.250485         2.035082         1.640364
 H         5.377075        -0.893716         0.899627
 H         5.046603         0.579889         1.739460
 H         4.584852        -0.903890         2.578375
 H         2.094619        -2.224789         0.444184
 H         1.530471        -1.227255         1.786601
 H        -0.451044         0.029509         0.887786
 H        -0.504945         0.829228        -0.665245
 H        -0.407754        -0.963269        -0.518534
 H         4.215742         0.929305        -0.898677
 H         2.104437         2.731864         1.095897
