19
Iteration:  1603charge 0 multiplicity 1
 C         4.575259        -0.465134         1.721104
 C         3.394473        -0.219276         0.884739
 C         2.244050        -1.306243         0.644787
 C         1.392964        -0.101817         0.004166
 C        -0.100665        -0.053973        -0.126624
 O         2.079794         0.141135        -1.171248
 C         3.213555         0.691245        -0.419503
 C         2.425147         0.939463         0.863411
 O         2.368430         2.153894         1.588176
 H         5.341529        -1.217540         1.259674
 H         5.127315         0.446678         2.015201
 H         4.007720        -0.763882         2.613561
 H         2.411988        -2.114251        -0.079075
 H         1.874729        -1.591146         1.651695
 H        -0.560878        -0.212173         0.851883
 H        -0.352891         0.810349        -0.700406
 H        -0.288329        -0.877208        -0.801851
 H         4.069489         1.275750        -0.832657
 H         2.317862         2.975546         0.982040
