19
Iteration:  4699charge 0 multiplicity 1
 C         4.661773        -0.300188         1.641289
 C         3.397951        -0.284743         0.850907
 C         2.197281        -1.193625         0.800403
 C         1.435388        -0.063792         0.097162
 C        -0.099941        -0.013548        -0.174329
 O         2.133666         0.108451        -1.206208
 C         3.250553         0.571922        -0.488187
 C         2.418581         0.948595         0.793527
 O         2.264873         1.975963         1.652887
 H         5.431506        -0.991367         1.414907
 H         5.185969         0.742023         1.653009
 H         4.291038        -0.249764         2.631575
 H         2.279587        -2.195948         0.246102
 H         1.624887        -1.389048         1.711140
 H        -0.667618        -0.289321         0.705815
 H        -0.451575         0.985938        -0.386590
 H        -0.317760        -0.634380        -1.034221
 H         4.022570         1.243765        -1.103350
 H         1.946800         2.704230         1.260853
