19
Iteration:  2890charge 0 multiplicity 1
 C         4.716263        -0.348377         1.664807
 C         3.367233        -0.333226         0.964928
 C         2.147496        -1.316719         0.704738
 C         1.423751        -0.113173         0.065290
 C        -0.041914         0.012934        -0.187779
 O         2.102010         0.149171        -1.187349
 C         3.166270         0.581486        -0.371551
 C         2.425661         0.901842         0.837701
 O         2.298556         2.153619         1.533682
 H         5.451957        -1.075670         1.431202
 H         5.174379         0.786813         1.562110
 H         4.728971        -0.490511         2.800972
 H         2.252859        -2.205634         0.090853
 H         1.815693        -1.468025         1.732807
 H        -0.626467        -0.076084         0.761725
 H        -0.364624         1.043298        -0.542205
 H        -0.426680        -0.734318        -0.920602
 H         4.056506         1.125458        -0.880556
 H         1.927766         2.889225         0.780614
