19
Iteration:  3312charge 0 multiplicity 1
 C         4.611857        -0.368710         1.737659
 C         3.361651        -0.264859         0.811924
 C         2.203702        -1.297331         0.837302
 C         1.416772        -0.097579         0.100562
 C        -0.089992        -0.069993        -0.129628
 O         2.137832         0.156706        -1.249090
 C         3.195755         0.609608        -0.532357
 C         2.491504         0.992829         0.767887
 O         2.266736         2.091288         1.588156
 H         5.486788        -0.994640         1.488304
 H         4.886770         0.589567         1.923193
 H         4.258269        -0.794124         2.678667
 H         2.239038        -2.249511         0.353811
 H         1.758527        -1.240313         1.820720
 H        -0.636826        -0.029116         0.859370
 H        -0.366246         0.979782        -0.614217
 H        -0.278805        -0.908846        -0.837766
 H         4.113772         1.027401        -1.081185
 H         2.626527         2.863763         1.351669
