19
Iteration:  4922
 C         4.657014        -0.268427         1.704403
 C         3.327576        -0.160782         0.849849
 C         2.184341        -1.160391         0.739592
 C         1.373170        -0.117114         0.046943
 C        -0.086556        -0.039068        -0.063816
 O         2.202894         0.093986        -1.257926
 C         3.287317         0.553021        -0.524362
 C         2.392328         0.975286         0.640969
 O         2.240086         1.952701         1.749535
 H         5.366731        -1.169690         1.360822
 H         5.239548         0.632244         1.620253
 H         4.502113        -0.606802         2.797707
 H         2.094704        -2.080715         0.141400
 H         1.899155        -1.271013         1.903509
 H        -0.569619        -0.223998         0.885100
 H        -0.239849         1.028258        -0.453939
 H        -0.613967        -0.878197        -0.576188
 H         4.262519         0.718424        -1.090499
 H         2.204764         2.971532         1.313503
