19
Iteration:  3651charge 0 multiplicity 1
 C         4.622632        -0.424332         1.683550
 C         3.343027        -0.274529         0.852346
 C         2.137494        -1.099538         0.831524
 C         1.419819        -0.033005         0.050421
 C        -0.121242        -0.135647        -0.000453
 O         2.204724         0.123535        -1.255073
 C         3.259729         0.652310        -0.479063
 C         2.526165         0.995982         0.717985
 O         2.189749         2.018809         1.507060
 H         5.440322        -1.115189         1.265401
 H         5.132254         0.439429         1.905919
 H         4.373290        -0.880648         2.711384
 H         2.090672        -2.133941         0.413376
 H         1.782301        -1.055288         1.948165
 H        -0.591658        -0.518409         0.920002
 H        -0.346201         0.888060        -0.293759
 H        -0.607564        -0.718399        -0.706085
 H         4.182777         1.146009        -1.001176
 H         2.835062         2.756897         1.411316
