19
Iteration:  1878charge 0 multiplicity 1
 C         4.654921        -0.335020         1.739908
 C         3.413963        -0.293387         0.844218
 C         2.144794        -1.238033         0.757884
 C         1.412578        -0.112659         0.083552
 C        -0.054450         0.022154        -0.144050
 O         2.098371         0.142214        -1.249344
 C         3.251742         0.598986        -0.506726
 C         2.492801         0.978359         0.720297
 O         2.249578         1.978337         1.654423
 H         5.166544        -1.330977         1.812491
 H         5.420618         0.500582         1.565717
 H         4.301896        -0.109407         2.696897
 H         2.270168        -2.192817         0.166706
 H         1.843675        -1.373688         1.880786
 H        -0.645683         0.017136         0.804804
 H        -0.287068         1.074724        -0.380793
 H        -0.540731        -0.674266        -0.890332
 H         4.025582         1.228993        -0.996533
 H         1.940852         2.739193         1.405908
