19
Iteration:  3238
 C         4.605210        -0.325286         1.669331
 C         3.292186        -0.291433         0.916061
 C         2.234392        -1.244328         0.754556
 C         1.425148        -0.062589         0.089043
 C         0.000199        -0.014462        -0.120909
 O         2.116946         0.138666        -1.213033
 C         3.236749         0.579896        -0.338707
 C         2.375113         0.913391         0.783148
 O         2.317759         2.103439         1.494149
 H         5.043346        -1.377896         1.279010
 H         5.388643         0.446077         1.322436
 H         4.525914        -0.614879         2.695460
 H         2.449735        -2.112151         0.005634
 H         1.670370        -1.529013         1.691576
 H        -0.481509        -0.308100         0.809821
 H        -0.292002         1.039475        -0.314848
 H        -0.164792        -0.601541        -0.967276
 H         4.147901         1.100240        -0.726989
 H         1.587005         2.684826         1.170874
