19
Iteration:  3508charge 0 multiplicity 1
 C         4.595713        -0.416408         1.681593
 C         3.348314        -0.163236         0.924354
 C         2.220769        -1.216451         0.827137
 C         1.393581        -0.135364         0.038054
 C        -0.172952        -0.020904        -0.160007
 O         2.179414         0.027633        -1.202364
 C         3.193706         0.739635        -0.504453
 C         2.456046         0.995605         0.668102
 O         2.358378         2.031200         1.657795
 H         5.231457        -1.175788         1.148197
 H         5.057363         0.519159         1.906109
 H         4.372865        -0.678115         2.779458
 H         2.549007        -2.139763         0.401770
 H         1.786048        -1.395947         1.826471
 H        -0.641560        -0.250430         0.765830
 H        -0.439361         0.887192        -0.700056
 H        -0.315359        -0.823193        -0.767265
 H         4.093965         1.035613        -0.927868
 H         2.138433         2.944310         1.075723
