19
Iteration:  3164charge 0 multiplicity 1
 C         4.669121        -0.436771         1.623944
 C         3.313835        -0.257872         0.999698
 C         2.141951        -1.232147         0.761479
 C         1.429625        -0.106127        -0.003606
 C        -0.057195         0.040357        -0.071781
 O         2.203232         0.017599        -1.233944
 C         3.244630         0.755488        -0.456749
 C         2.500843         1.000351         0.786595
 O         2.119066         2.031792         1.571000
 H         5.434273        -1.041523         1.199826
 H         5.237026         0.625641         1.422489
 H         4.622902        -0.654458         2.694037
 H         2.079741        -2.191566         0.223358
 H         1.678466        -1.403100         1.728289
 H        -0.400403         0.364244         0.940601
 H        -0.277346         0.747452        -0.854831
 H        -0.516654        -1.012426        -0.350335
 H         4.260322         0.923504        -0.933583
 H         2.661004         2.948667         1.353699
