19
Iteration:  4518
 C         4.614650        -0.262327         1.644177
 C         3.382445        -0.194096         0.845572
 C         2.149780        -1.247912         0.823358
 C         1.426388        -0.025823         0.044246
 C        -0.071789        -0.011939        -0.149754
 O         2.136128         0.032826        -1.245632
 C         3.270377         0.633289        -0.461691
 C         2.438439         0.955269         0.734669
 O         2.309312         1.931941         1.675540
 H         5.212720        -1.201394         1.409206
 H         5.072214         0.655457         1.717265
 H         4.311263        -0.293079         2.753023
 H         2.137579        -2.030476         0.059148
 H         1.734407        -1.326581         1.860030
 H        -0.350371        -0.093411         0.925252
 H        -0.535066         0.895382        -0.419714
 H        -0.406267        -0.864241        -0.745596
 H         4.113951         1.322239        -0.860553
 H         1.921728         2.594613         1.146334
