19
Iteration:   965charge 0 multiplicity 1
 C         4.672242        -0.342796         1.569404
 C         3.318046        -0.365987         0.908904
 C         2.157192        -1.250570         0.818451
 C         1.454415        -0.017917        -0.009120
 C        -0.056219         0.101011        -0.200345
 O         2.157050         0.127625        -1.175619
 C         3.272731         0.562093        -0.346801
 C         2.453252         0.925222         0.831589
 O         2.219129         2.021880         1.590094
 H         5.471120        -0.988997         0.979002
 H         5.046903         0.641655         1.779930
 H         4.545149        -0.958181         2.559629
 H         2.309243        -2.204686         0.274041
 H         1.700983        -1.521620         1.704962
 H        -0.485481         0.225121         0.825833
 H        -0.303475         1.057243        -0.695481
 H        -0.597267        -0.698894        -0.692639
 H         4.034459         1.140361        -0.832910
 H         1.858650         2.839207         1.096639
