19
Iteration:   718
 C         4.507455        -0.523701         1.770665
 C         3.411514        -0.245689         0.866863
 C         2.182027        -1.259503         0.785539
 C         1.456360        -0.019641         0.016069
 C        -0.002744        -0.050206         0.015716
 O         2.115939         0.188727        -1.264958
 C         3.295695         0.757308        -0.511218
 C         2.524841         0.927264         0.748487
 O         2.215608         2.054284         1.514269
 H         5.124315        -1.363659         1.452465
 H         5.112051         0.415258         1.969539
 H         3.925002        -0.827888         2.650585
 H         2.082819        -2.129500         0.234858
 H         1.765568        -1.417169         1.825040
 H        -0.267416        -0.221392         1.093999
 H        -0.319230         0.856936        -0.473764
 H        -0.430036        -0.858392        -0.597926
 H         4.271363         1.101184        -0.852013
 H         1.791124         2.792141         0.887524
