19
Iteration:  4638
 C         4.633504        -0.468451         1.647444
 C         3.419065        -0.206379         0.911612
 C         2.204252        -1.280129         0.698144
 C         1.438377        -0.046379         0.081201
 C        -0.111032        -0.091774        -0.014507
 O         2.244262         0.161426        -1.196316
 C         3.251181         0.702994        -0.457500
 C         2.395531         0.942642         0.792804
 O         2.169443         2.119037         1.516012
 H         5.060014        -1.480024         1.322273
 H         5.252650         0.412723         1.659567
 H         4.416551        -0.791346         2.733243
 H         2.309696        -2.217634         0.149457
 H         1.667824        -1.300873         1.689750
 H        -0.526957        -0.472243         0.993960
 H        -0.615732         0.851097        -0.259398
 H        -0.391732        -0.884755        -0.758090
 H         4.136121         1.099329        -0.952824
 H         2.162133         2.933662         0.887412
