19
Iteration:  1266
 C         4.538934        -0.427784         1.759201
 C         3.343986        -0.163615         0.915402
 C         2.206647        -1.214586         0.561239
 C         1.413695        -0.035329        -0.009471
 C        -0.055355        -0.042686        -0.035781
 O         2.154138         0.176076        -1.243394
 C         3.286411         0.597214        -0.418519
 C         2.403389         0.923550         0.768305
 O         2.326696         2.005611         1.668641
 H         4.831560        -1.506795         1.770751
 H         5.372694         0.248622         1.365171
 H         4.521645        -0.176136         2.796561
 H         2.427004        -2.080861        -0.042510
 H         1.713299        -1.443724         1.567374
 H        -0.620358        -0.141702         0.857189
 H        -0.476902         0.935386        -0.405576
 H        -0.359164        -0.819856        -0.775741
 H         4.069924         0.996142        -1.075911
 H         2.035530         2.702953         1.148511
