19
Iteration:  2415
 C         4.575632        -0.382980         1.797560
 C         3.373307        -0.242648         0.874628
 C         2.159121        -1.269049         0.655605
 C         1.375720        -0.109009         0.033832
 C        -0.159691        -0.033987         0.008988
 O         2.242967         0.067066        -1.245937
 C         3.208668         0.680996        -0.451206
 C         2.473483         0.951239         0.795362
 O         2.350219         2.117808         1.515655
 H         5.075886        -1.351308         1.590463
 H         5.496446         0.321596         1.471737
 H         4.224557        -0.155752         2.787836
 H         2.429735        -2.092063        -0.142636
 H         1.795949        -1.655010         1.677262
 H        -0.731411        -0.269613         0.898010
 H        -0.264841         1.015668        -0.255760
 H        -0.463836        -0.608439        -0.836609
 H         4.165937         1.101038        -0.916223
 H         1.569984         2.860211         1.322423
