19
Iteration:   454
 C         4.662073        -0.290237         1.668686
 C         3.367414        -0.299821         0.885233
 C         2.121439        -1.206461         0.803923
 C         1.356987        -0.049684         0.010616
 C        -0.130870        -0.006014        -0.302597
 O         2.153728         0.123604        -1.199830
 C         3.236772         0.510411        -0.444489
 C         2.450730         0.939021         0.779035
 O         2.427033         2.052095         1.712302
 H         5.301898        -1.070359         1.312885
 H         5.166709         0.682743         1.574694
 H         4.542051        -0.322738         2.731462
 H         2.014343        -2.309037         0.637393
 H         1.697962        -1.118543         1.862840
 H        -0.760110        -0.161802         0.555627
 H        -0.452524         0.934948        -0.783054
 H        -0.278172        -0.927299        -0.864291
 H         4.063371         0.988109        -0.971923
 H         1.505349         2.584325         1.433513
