19
Iteration:  1057charge 0 multiplicity 1
 C         4.528536        -0.422380         1.816324
 C         3.343436        -0.245122         0.857272
 C         2.163964        -1.218367         0.604490
 C         1.419781         0.051252         0.040383
 C        -0.062224        -0.102272        -0.032879
 O         2.170158         0.187819        -1.229122
 C         3.254788         0.618990        -0.503587
 C         2.470305         0.961596         0.738708
 O         2.346278         2.025276         1.622420
 H         4.838021        -1.480344         1.592289
 H         5.363231         0.353375         1.553973
 H         4.309546        -0.389814         2.906110
 H         2.085453        -2.134653         0.084919
 H         1.854077        -1.407841         1.666971
 H        -0.344564        -0.361813         0.968977
 H        -0.553278         0.837463        -0.280693
 H        -0.322535        -0.918272        -0.710709
 H         4.148055         0.992830        -0.952374
 H         1.799943         2.641909         1.117809
