19
Iteration:  1295
 C         4.620482        -0.438895         1.692581
 C         3.450226        -0.270259         0.794443
 C         2.183361        -1.237716         0.766470
 C         1.425322        -0.076567         0.047400
 C        -0.049228         0.079913        -0.146894
 O         2.129016         0.152270        -1.238183
 C         3.216731         0.711481        -0.435524
 C         2.439223         0.910035         0.817679
 O         2.259222         1.989573         1.663510
 H         5.212037        -1.392244         1.634194
 H         5.234228         0.366254         1.587918
 H         4.366070        -0.346298         2.779426
 H         2.228395        -2.306289         0.314930
 H         1.817278        -1.338856         1.804040
 H        -0.886929         0.111093         0.578189
 H        -0.109155         1.028944        -0.750131
 H        -0.321439        -0.746498        -0.861706
 H         4.058372         1.088044        -1.068383
 H         1.617733         2.391054         1.236358
