19
Iteration:  2358
 C         4.699557        -0.387019         1.631791
 C         3.328680        -0.243134         0.869951
 C         2.079361        -1.211062         0.824583
 C         1.424354        -0.039866        -0.018945
 C        -0.116756         0.012327        -0.109932
 O         2.249427        -0.017716        -1.263585
 C         3.257099         0.640641        -0.437786
 C         2.445460         1.014447         0.764013
 O         2.228917         2.066648         1.663667
 H         5.260277        -1.208855         1.063580
 H         4.982473         0.697271         1.654943
 H         4.612573        -0.822747         2.681372
 H         2.280333        -2.232058         0.299681
 H         1.733135        -1.416666         1.914384
 H        -0.508527         0.067859         0.856400
 H        -0.520538         0.799720        -0.741511
 H        -0.488932        -0.944865        -0.546744
 H         4.116393         1.128251        -0.809223
 H         2.325340         2.971099         1.431372
