19
Iteration:  2157
 C         4.640324        -0.406176         1.525346
 C         3.305423        -0.227055         0.904920
 C         2.085094        -1.176380         0.853014
 C         1.413487        -0.002866         0.052279
 C        -0.073047        -0.026436        -0.151931
 O         2.254226         0.047885        -1.220882
 C         3.361010         0.586591        -0.378309
 C         2.366876         1.015391         0.736888
 O         2.255222         2.028553         1.644608
 H         5.359681        -0.883466         0.857046
 H         5.066929         0.551809         1.706001
 H         4.546446        -0.914197         2.573615
 H         2.066870        -2.255081         0.438422
 H         1.525639        -1.245652         1.801828
 H        -0.434426         0.058633         0.889268
 H        -0.517552         0.807691        -0.654354
 H        -0.410346        -0.938706        -0.547930
 H         4.203625         0.928462        -0.903283
 H         2.113419         2.770121         1.047529
