19
Iteration:  3035charge 0 multiplicity 1
 C         4.667964        -0.238194         1.598076
 C         3.331235        -0.224063         0.916381
 C         2.189367        -1.237864         0.836328
 C         1.317783        -0.075759         0.038703
 C        -0.111116         0.002132        -0.294773
 O         2.113872         0.084620        -1.158069
 C         3.289423         0.513153        -0.423002
 C         2.403272         0.935633         0.805006
 O         2.356393         2.007392         1.660129
 H         5.236265        -1.159376         1.512108
 H         5.230893         0.575514         1.278986
 H         4.687136        -0.027740         2.729760
 H         2.354807        -2.157609         0.291886
 H         1.740884        -1.475808         1.811091
 H        -0.615034        -0.257898         0.635764
 H        -0.423812         0.995375        -0.463564
 H        -0.392957        -0.654168        -1.166330
 H         4.113539         0.958167        -0.891009
 H         2.344451         2.884928         1.006370
