19
Iteration:   282charge 0 multiplicity 1
 C         4.618819        -0.335554         1.662067
 C         3.260644        -0.214855         0.925341
 C         2.143534        -1.195130         0.916598
 C         1.412297        -0.109116         0.037152
 C        -0.051279         0.021154        -0.189917
 O         2.180755         0.147574        -1.271377
 C         3.175199         0.553468        -0.460123
 C         2.471193         0.927771         0.732898
 O         2.366107         2.050743         1.549729
 H         5.171093        -1.182700         1.242616
 H         5.302946         0.574061         1.383552
 H         4.653953        -0.465975         2.770330
 H         2.372168        -2.142645         0.541517
 H         1.561239        -1.245604         1.853930
 H        -0.574427        -0.136432         0.757067
 H        -0.372196         0.951354        -0.714611
 H        -0.399092        -0.798753        -0.853698
 H         4.121304         0.926968        -0.862802
 H         1.908775         1.839012         2.422953
