19
Iteration:  2661
 C         4.637910        -0.243859         1.630350
 C         3.336011        -0.298991         0.900116
 C         2.165256        -1.213849         0.788926
 C         1.417633        -0.091989         0.076468
 C        -0.115773         0.036429        -0.235759
 O         2.147152         0.069831        -1.216588
 C         3.241292         0.559529        -0.357168
 C         2.431744         0.940781         0.824570
 O         2.335927         2.041421         1.607243
 H         5.177956        -1.233721         1.382903
 H         5.215601         0.672923         1.352696
 H         4.601966        -0.274510         2.808766
 H         2.231035        -2.197572         0.205048
 H         1.813921        -1.735415         1.716654
 H        -0.732293        -0.151934         0.631098
 H        -0.449314         1.020226        -0.609427
 H        -0.421066        -0.716960        -0.935551
 H         4.109994         1.020296        -0.742626
 H         2.213444         2.817601         0.907116
