19
Iteration:  2197
 C         4.641158        -0.332120         1.704769
 C         3.369618        -0.248179         0.868683
 C         2.233829        -1.298301         0.774244
 C         1.419593        -0.121774         0.070790
 C        -0.051616         0.060460        -0.238153
 O         2.071855         0.098733        -1.190688
 C         3.171574         0.535973        -0.456546
 C         2.375220         0.904605         0.780991
 O         2.373337         2.132334         1.653890
 H         5.102959        -1.253383         1.415573
 H         5.346158         0.582269         1.686681
 H         4.452530        -0.498273         2.728976
 H         2.254527        -2.102238         0.125116
 H         1.987825        -1.436912         1.793165
 H        -0.685145        -0.071001         0.649590
 H        -0.220349         1.046117        -0.783704
 H        -0.400002        -0.830364        -0.858846
 H         3.993440         1.100563        -0.853619
 H         1.990837         3.015193         1.124607
