19
Iteration:   667charge 0 multiplicity 1
 C         4.616210        -0.316932         1.590772
 C         3.281273        -0.250722         0.961774
 C         2.145168        -1.236655         0.768726
 C         1.342352        -0.120456        -0.010348
 C        -0.114033         0.006863        -0.251211
 O         2.232975         0.082906        -1.156693
 C         3.226074         0.597170        -0.399276
 C         2.445701         0.965714         0.846156
 O         2.378068         2.049141         1.684416
 H         5.101111        -1.222096         1.266649
 H         5.187066         0.562799         1.065235
 H         4.693012        -0.146275         2.679177
 H         2.378665        -2.207976         0.168447
 H         1.606130        -1.536120         1.704833
 H        -0.744208         0.040748         0.679278
 H        -0.163011         0.920588        -0.840380
 H        -0.462707        -0.815855        -0.919835
 H         4.024319         0.903142        -1.047232
 H         2.151190         2.905099         1.225552
