19
Iteration:  1406charge 0 multiplicity 1
 C         4.587265        -0.556057         1.861551
 C         3.391516        -0.211615         0.819565
 C         2.298538        -1.213382         0.574565
 C         1.418453        -0.025521         0.057375
 C        -0.078453        -0.046671        -0.091822
 O         2.115636         0.115652        -1.220404
 C         3.186309         0.675668        -0.401445
 C         2.404188         1.039715         0.744808
 O         2.329249         2.094506         1.607130
 H         5.033105        -1.466058         1.350412
 H         5.273014         0.200760         1.981088
 H         4.261562        -0.953475         2.803510
 H         2.262950        -2.084690        -0.078249
 H         1.930321        -1.382657         1.592628
 H        -0.552413        -0.228328         0.876087
 H        -0.513953         0.935187        -0.450752
 H        -0.254034        -0.866589        -0.831002
 H         3.959194         1.057684        -1.001321
 H         1.850712         2.747939         1.286228
