19
Iteration:   989charge 0 multiplicity 1
 C         4.735059        -0.347559         1.567000
 C         3.305080        -0.267566         0.988401
 C         2.104991        -1.216416         0.713930
 C         1.335684        -0.119751         0.178510
 C        -0.078436         0.126640        -0.298447
 O         2.240194         0.061508        -1.215963
 C         3.183256         0.583984        -0.381606
 C         2.446155         0.961469         0.834562
 O         2.296961         2.021977         1.648260
 H         5.410335        -1.218181         1.100453
 H         5.152090         0.654274         1.363930
 H         4.729044        -0.541013         2.722867
 H         2.191331        -2.081928         0.104585
 H         1.942709        -1.647606         1.664380
 H        -0.659480         0.151453         0.671991
 H        -0.215586         1.031252        -0.818101
 H        -0.481396        -0.718974        -0.832606
 H         4.080542         0.924133        -0.973507
 H         1.733799         2.718030         1.351423
