19
Iteration:  2239charge 0 multiplicity 1
 C         4.628049        -0.349095         1.811540
 C         3.316420        -0.227895         0.882361
 C         2.101780        -1.246450         0.696545
 C         1.416338         0.006799        -0.020534
 C        -0.073600        -0.051470         0.006990
 O         2.177928         0.130032        -1.325581
 C         3.276059         0.569265        -0.408375
 C         2.433675         0.968346         0.730221
 O         2.330792         2.023018         1.594658
 H         4.970824        -1.379776         1.706284
 H         5.307259         0.492483         1.443235
 H         4.428023        -0.233777         2.819162
 H         2.444209        -2.153282         0.138055
 H         1.534954        -1.434144         1.658787
 H        -0.334271        -0.453158         0.965580
 H        -0.546600         0.944817        -0.169110
 H        -0.385610        -0.789924        -0.802284
 H         4.018344         1.020962        -1.012605
 H         2.100036         2.764304         1.050482
