19
Iteration:  2320charge 0 multiplicity 1
 C         4.651370        -0.380949         1.560587
 C         3.290620        -0.297827         0.994097
 C         2.193490        -1.327986         0.861522
 C         1.394135        -0.058012         0.060400
 C        -0.094310         0.053060        -0.178945
 O         2.169828         0.133291        -1.229699
 C         3.270567         0.596267        -0.332333
 C         2.476438         0.980575         0.756115
 O         2.248831         2.083474         1.563491
 H         5.327250        -0.823481         0.896420
 H         5.170309         0.526878         1.706393
 H         4.675501        -0.816088         2.552189
 H         2.440149        -2.107837         0.228897
 H         1.740148        -1.611549         1.751510
 H        -0.755298         0.284558         0.756411
 H        -0.220590         0.897045        -0.901420
 H        -0.418665        -0.930541        -0.544606
 H         4.158421         0.962582        -0.949067
 H         1.853445         2.629281         1.003202
