19
Iteration:  1512
 C         4.697740        -0.421515         1.648417
 C         3.307364        -0.216437         0.904628
 C         2.189777        -1.208954         0.821494
 C         1.408813        -0.074506        -0.020256
 C        -0.025416         0.173561        -0.183555
 O         2.204292        -0.017095        -1.247735
 C         3.210852         0.698291        -0.476499
 C         2.339373         0.942236         0.769816
 O         2.252109         1.940317         1.755314
 H         5.448819        -1.069622         1.202210
 H         5.246148         0.507045         1.525222
 H         4.651806        -0.592983         2.778789
 H         2.387146        -2.176374         0.228994
 H         1.791739        -1.397014         1.791635
 H        -0.545570         0.107284         0.735416
 H        -0.205969         1.112414        -0.719778
 H        -0.564951        -0.554621        -0.763331
 H         4.003331         1.126065        -1.037985
 H         1.800248         2.705076         1.067332
