19
Iteration:  1711charge 0 multiplicity 1
 C         4.691922        -0.350088         1.718565
 C         3.452729        -0.336441         0.829574
 C         2.204709        -1.343493         0.728614
 C         1.411154        -0.064793         0.076857
 C        -0.051401         0.113307        -0.073779
 O         2.129058         0.145858        -1.255145
 C         3.230101         0.642846        -0.444492
 C         2.423114         0.911561         0.781205
 O         2.150776         2.033683         1.599122
 H         5.280895        -1.269948         1.406780
 H         5.304606         0.500518         1.699126
 H         4.496185        -0.480067         2.810570
 H         2.434233        -2.205766         0.002901
 H         1.736415        -1.651137         1.705044
 H        -0.692775         0.262901         0.816301
 H        -0.241886         1.106714        -0.533303
 H        -0.462228        -0.657083        -0.750972
 H         4.133969         1.133788        -0.719717
 H         2.039755         2.769212         1.151475
