19
Iteration:  4287charge 0 multiplicity 1
 C         4.574499        -0.394468         1.831387
 C         3.390060        -0.189124         0.874369
 C         2.243866        -1.304937         0.808621
 C         1.403841        -0.084804         0.000760
 C        -0.078609        -0.076828        -0.088260
 O         2.076284         0.171958        -1.268921
 C         3.256047         0.613971        -0.538442
 C         2.451285         0.967587         0.759138
 O         2.319987         2.106206         1.577012
 H         5.059845        -1.420169         1.473189
 H         5.295075         0.357697         1.705091
 H         4.446968        -0.459387         2.989484
 H         2.377846        -2.186272         0.169513
 H         1.805928        -1.427289         1.831866
 H        -0.491781        -0.453736         0.786662
 H        -0.539407         0.876338        -0.265470
 H        -0.475225        -0.753554        -0.824186
 H         4.068827         1.177436        -1.095279
 H         2.078748         2.727122         1.017244
