19
Iteration:  3075
 C         4.523029        -0.433635         1.696361
 C         3.329969        -0.165733         0.866228
 C         2.184600        -1.141131         0.847576
 C         1.477376        -0.034575         0.038957
 C        -0.092198        -0.101314        -0.074696
 O         2.198410         0.087171        -1.193616
 C         3.284798         0.644577        -0.519638
 C         2.467738         0.989623         0.658526
 O         2.292065         2.000175         1.599234
 H         5.030068        -1.314634         1.355148
 H         5.206544         0.547237         1.709987
 H         4.122495        -0.655776         2.643404
 H         2.274197        -2.103861         0.295793
 H         1.905797        -1.150321         1.887885
 H        -0.499441        -0.531506         0.875747
 H        -0.698718         0.873685        -0.072765
 H        -0.506067        -0.753382        -0.933849
 H         4.019824         1.045187        -1.137444
 H         2.059399         2.812486         1.215926
