19
Iteration:  3787charge 0 multiplicity 1
 C         4.518909        -0.396452         1.730639
 C         3.388410        -0.251772         0.778965
 C         2.212553        -1.296381         0.767170
 C         1.431727        -0.113015         0.077833
 C        -0.047397         0.003979         0.015865
 O         2.181182         0.089015        -1.240361
 C         3.258081         0.728861        -0.476805
 C         2.424072         0.931479         0.695909
 O         2.238957         2.072854         1.576567
 H         5.034200        -1.303582         1.458713
 H         5.246198         0.557449         1.757620
 H         4.185129        -0.378455         2.751225
 H         2.288531        -2.243043         0.155959
 H         1.894626        -1.467987         1.790096
 H        -0.349885         0.159632         1.080312
 H        -0.350423         0.897893        -0.567640
 H        -0.529278        -0.860304        -0.507556
 H         4.178017         1.165711        -0.943588
 H         2.301883         2.859539         1.057791
