19
Iteration:  2465charge 0 multiplicity 1
 C         4.670742        -0.369088         1.721248
 C         3.450568        -0.277169         0.852202
 C         2.105881        -1.232340         0.794112
 C         1.402888        -0.052477         0.093428
 C        -0.086593        -0.040537        -0.096876
 O         2.147616         0.129864        -1.220158
 C         3.263960         0.655898        -0.473797
 C         2.456819         0.921870         0.768790
 O         2.191281         2.050088         1.523019
 H         5.380885        -1.247164         1.480679
 H         5.352403         0.410798         1.552743
 H         4.305560        -0.509808         2.841556
 H         2.010251        -2.194734         0.375300
 H         1.798235        -1.199629         1.834042
 H        -0.639278        -0.230024         0.887164
 H        -0.406500         0.986387        -0.494376
 H        -0.359872        -0.719839        -1.031239
 H         4.169509         0.962227        -1.007889
 H         2.649013         2.848086         1.295683
