19
Iteration:  4981charge 0 multiplicity 1
 C         4.695895        -0.413568         1.678194
 C         3.380076        -0.224895         0.935901
 C         2.336101        -1.262563         0.659277
 C         1.367579        -0.123573         0.000305
 C        -0.150255        -0.018890        -0.082947
 O         2.126398         0.099214        -1.204234
 C         3.228680         0.551304        -0.411232
 C         2.404238         0.987810         0.814939
 O         2.249454         2.178829         1.598927
 H         5.298832        -1.283579         1.327584
 H         5.324126         0.521318         1.805438
 H         4.303168        -0.539125         2.703688
 H         2.639080        -2.072417        -0.112084
 H         1.965805        -1.792028         1.490389
 H        -0.404425         0.474936         0.891656
 H        -0.494796         0.666908        -0.863370
 H        -0.699452        -0.968312        -0.368746
 H         3.990012         1.167003        -0.851491
 H         1.774472         2.691645         1.023545
