19
Iteration:  3850charge 0 multiplicity 1
 C         4.625547        -0.357878         1.630180
 C         3.320409        -0.301622         0.887788
 C         2.141077        -1.211135         0.777510
 C         1.425969        -0.070509         0.015818
 C        -0.073811        -0.064912        -0.131421
 O         2.178682        -0.004578        -1.278846
 C         3.218833         0.677607        -0.407000
 C         2.493129         1.011227         0.802013
 O         2.284702         2.140345         1.656571
 H         5.413255        -0.993298         1.160079
 H         5.045171         0.586705         1.618353
 H         4.494510        -0.771140         2.630856
 H         2.246974        -2.265462         0.351429
 H         1.569982        -1.390589         1.736004
 H        -0.572425        -0.147545         0.910810
 H        -0.371541         0.983023        -0.309710
 H        -0.448895        -0.780578        -0.814963
 H         4.248266         0.913552        -0.813091
 H         2.006724         2.759955         1.079142
