19
Iteration:  4175charge 0 multiplicity 1
 C         4.673022        -0.367653         1.718792
 C         3.382141        -0.189619         0.913309
 C         2.203024        -1.251501         0.694408
 C         1.415213        -0.078387         0.036293
 C        -0.086873         0.056289        -0.035448
 O         2.172532         0.076470        -1.227543
 C         3.254726         0.554411        -0.454367
 C         2.454715         0.955541         0.734815
 O         2.164570         2.059043         1.584449
 H         5.303838        -1.158758         1.257202
 H         5.283471         0.572911         1.804031
 H         4.377995        -0.799703         2.718088
 H         2.326331        -2.217811         0.161482
 H         1.774788        -1.534826         1.733274
 H        -0.514239         0.242028         0.978206
 H        -0.214564         0.926103        -0.674775
 H        -0.428823        -0.888603        -0.417967
 H         4.070497         1.014651        -0.961778
 H         1.931590         2.786706         0.889384
