19
Iteration:  2361charge 0 multiplicity 1
 C         4.687738        -0.410673         1.650752
 C         3.334670        -0.236056         0.883227
 C         2.109892        -1.210171         0.838919
 C         1.393136        -0.049471         0.014126
 C        -0.122909         0.008820        -0.124667
 O         2.247040         0.014474        -1.265689
 C         3.255702         0.631785        -0.476712
 C         2.454016         0.992953         0.742215
 O         2.225332         2.052880         1.660657
 H         5.252459        -1.150389         1.056939
 H         5.011492         0.715708         1.646942
 H         4.544018        -0.717631         2.656150
 H         2.271306        -2.207512         0.275033
 H         1.747055        -1.372138         1.896407
 H        -0.539772         0.026652         0.909189
 H        -0.463089         0.874213        -0.729997
 H        -0.433931        -0.958553        -0.505831
 H         4.221530         1.121285        -0.798005
 H         2.341895         3.119758         1.428763
