19
Iteration:  4794charge 0 multiplicity 1
 C         4.671679        -0.508481         1.703645
 C         3.405059        -0.171131         0.931278
 C         2.207882        -1.209300         0.716612
 C         1.438990        -0.015067         0.104209
 C        -0.016997        -0.090502        -0.038757
 O         2.078582         0.165333        -1.212189
 C         3.258863         0.729850        -0.444263
 C         2.403786         0.950971         0.749658
 O         2.207666         2.005356         1.499984
 H         5.188476        -1.357233         1.123301
 H         5.338202         0.301489         1.971486
 H         4.272113        -0.704927         2.728636
 H         2.463080        -2.070230         0.052466
 H         1.776937        -1.573099         1.620828
 H        -0.405675         0.289126         0.881400
 H        -0.373723         0.643356        -0.838476
 H        -0.263826        -1.125026        -0.380198
 H         4.207394         1.229591        -0.826848
 H         1.641766         2.664807         0.886227
