19
Iteration:   999charge 0 multiplicity 1
 C         4.633743        -0.358894         1.545766
 C         3.296448        -0.281359         0.923432
 C         2.181378        -1.251625         0.827153
 C         1.385126        -0.034774         0.075562
 C        -0.066467         0.052082        -0.281471
 O         2.203087         0.021036        -1.183650
 C         3.176770         0.630680        -0.414505
 C         2.452987         0.969664         0.795237
 O         2.309021         2.030851         1.718393
 H         5.307264        -1.272514         1.205721
 H         5.274520         0.454793         1.274083
 H         4.622128        -0.336636         2.711881
 H         2.361955        -1.952680         0.012017
 H         1.716711        -1.640058         1.671753
 H        -0.699457         0.189156         0.635033
 H        -0.123425         1.021008        -0.755235
 H        -0.557294        -0.583141        -0.980020
 H         4.116967         1.094353        -0.796256
 H         1.925604         2.739469         1.313371
