19
Iteration:  4897charge 0 multiplicity 1
 C         4.565195        -0.254915         1.621208
 C         3.332188        -0.224421         0.875001
 C         2.261058        -1.222061         0.761328
 C         1.424033        -0.069222         0.031297
 C        -0.050744         0.035590        -0.148520
 O         2.114680        -0.035523        -1.206246
 C         3.218688         0.660379        -0.410909
 C         2.470147         0.899615         0.788657
 O         2.331855         2.018581         1.677609
 H         5.208696        -1.050610         1.284059
 H         5.034120         0.743611         1.392628
 H         4.506441        -0.524883         2.669507
 H         2.247528        -2.106998         0.142069
 H         1.882414        -1.384418         1.823885
 H        -0.763484        -0.426548         0.572166
 H        -0.283625         1.017548        -0.414696
 H        -0.235733        -0.581009        -1.003187
 H         3.866206         1.298890        -0.964762
 H         1.609781         2.638746         1.238022
