19
Iteration:   539charge 0 multiplicity 1
 C         4.616534        -0.422092         1.709273
 C         3.299752        -0.302353         0.947962
 C         2.195223        -1.303945         0.670525
 C         1.436849        -0.005673         0.017949
 C         0.043455         0.036918        -0.036389
 O         2.109548         0.186540        -1.182606
 C         3.274029         0.585000        -0.318503
 C         2.417490         0.885895         0.824412
 O         2.237724         2.112818         1.419705
 H         5.152977        -1.410131         1.298035
 H         5.264968         0.483473         1.687278
 H         4.399844        -0.639332         2.829466
 H         2.248432        -1.861856        -0.255964
 H         1.808254        -1.818662         1.465479
 H        -0.351655         0.058475         0.975143
 H        -0.282317         0.958670        -0.590101
 H        -0.252334        -0.846242        -0.629477
 H         4.112410         1.231426        -0.599640
 H         1.799471         2.632865         0.736970
