19
Iteration:  1333charge 0 multiplicity 1
 C         4.727148        -0.392997         1.544499
 C         3.244800        -0.225994         0.984921
 C         2.167421        -1.221724         0.700510
 C         1.389403        -0.053426         0.047406
 C        -0.134781         0.126569        -0.138771
 O         2.289235         0.016801        -1.255222
 C         3.308373         0.626326        -0.432083
 C         2.400722         0.943716         0.771842
 O         2.176983         2.002635         1.745221
 H         5.397533        -0.948578         0.906734
 H         5.079991         0.732433         1.738607
 H         4.739250        -0.929253         2.500860
 H         2.327815        -2.144376         0.177581
 H         1.515917        -1.343076         1.660577
 H        -0.676282         0.123766         0.828543
 H        -0.394451         1.058198        -0.683955
 H        -0.382882        -0.703559        -0.814516
 H         4.314558         0.637157        -0.777111
 H         2.238333         2.832243         1.380068
