19
Iteration:   211charge 0 multiplicity 1
 C         4.529297        -0.441797         1.860279
 C         3.347220        -0.259126         0.925733
 C         2.265202        -1.273113         0.730079
 C         1.406109        -0.192463        -0.082400
 C        -0.120749        -0.043126        -0.025301
 O         2.147885         0.261510        -1.289027
 C         3.187805         0.610315        -0.398115
 C         2.417911         0.874410         0.827625
 O         2.381040         2.223521         1.342168
 H         5.333411        -1.126176         1.515824
 H         5.014440         0.438511         2.013648
 H         4.215296        -0.807574         2.831868
 H         2.538718        -2.257884         0.301847
 H         1.714216        -1.366647         1.681669
 H        -0.317800        -0.336293         1.017036
 H        -0.368480         0.996299        -0.204471
 H        -0.760603        -0.662673        -0.663161
 H         3.912882         1.125021        -1.059428
 H         2.719927         2.205978         2.132230
