19
Iteration:  1583charge 0 multiplicity 1
 C         4.527921        -0.530435         1.749530
 C         3.350652        -0.215097         0.946259
 C         2.311188        -1.222949         0.630723
 C         1.405316        -0.109299         0.082878
 C        -0.121446        -0.023338        -0.043646
 O         2.187787         0.149153        -1.250673
 C         3.218919         0.701928        -0.377791
 C         2.330055         0.903884         0.779425
 O         2.372670         2.123397         1.510678
 H         5.429317        -0.864691         1.083492
 H         5.085839         0.419362         2.082034
 H         4.309763        -1.163489         2.584798
 H         2.504828        -1.893631        -0.140402
 H         1.911333        -1.727046         1.585383
 H        -0.647848        -0.178921         0.939880
 H        -0.411065         0.873562        -0.583628
 H        -0.659591        -0.823481        -0.606940
 H         4.004727         1.329018        -0.827517
 H         2.095624         2.874770         1.006681
