19
Iteration:  3762
 C         4.601475        -0.436614         1.757568
 C         3.374108        -0.145422         0.887909
 C         2.216754        -1.089601         0.769980
 C         1.414236        -0.004360        -0.006559
 C        -0.090500        -0.012062        -0.013282
 O         2.162218         0.031609        -1.279327
 C         3.295477         0.563635        -0.545698
 C         2.436669         0.974919         0.672060
 O         2.228680         1.979127         1.659718
 H         5.029035        -1.386752         1.341923
 H         5.286170         0.380225         1.686349
 H         4.381229        -0.456148         2.842972
 H         2.481246        -2.009650         0.162370
 H         1.733651        -1.382085         1.784899
 H        -0.266402         0.005983         1.141066
 H        -0.673841         0.831328        -0.460480
 H        -0.303318        -0.945853        -0.459893
 H         4.101190         0.938218        -1.090428
 H         1.857003         2.905488         1.188277
