19
Iteration:  3482charge 0 multiplicity 1
 C         4.612899        -0.293965         1.714831
 C         3.376534        -0.298581         0.901966
 C         2.132879        -1.249859         0.661856
 C         1.423404        -0.081136         0.049981
 C        -0.028384        -0.071012        -0.124362
 O         2.079819         0.171940        -1.179868
 C         3.205272         0.504770        -0.337956
 C         2.406310         0.888395         0.804997
 O         2.405297         2.155915         1.530828
 H         5.255143        -1.006059         1.266870
 H         5.003733         0.788820         1.853335
 H         4.495575        -0.481867         2.781294
 H         2.387586        -2.177698         0.000885
 H         1.502615        -1.498354         1.564141
 H        -0.529894        -0.332531         0.812940
 H        -0.352067         0.900619        -0.463750
 H        -0.163090        -0.836071        -0.960032
 H         4.031780         1.102141        -0.827463
 H         1.920650         2.772706         0.796522
