19
Iteration:  3669charge 0 multiplicity 1
 C         4.616209        -0.387037         1.592007
 C         3.321471        -0.208663         0.857762
 C         2.165929        -1.238256         0.832080
 C         1.440665        -0.022068         0.108706
 C        -0.033438        -0.014056        -0.078026
 O         2.181344         0.062348        -1.214947
 C         3.264863         0.575754        -0.410775
 C         2.366402         0.970414         0.735783
 O         2.248450         2.104744         1.550065
 H         5.192713        -1.059127         1.014751
 H         5.125200         0.618591         1.925595
 H         4.460189        -0.790515         2.595353
 H         2.355040        -2.162786         0.257267
 H         1.637541        -1.391705         1.755544
 H        -0.553385        -0.426219         0.786005
 H        -0.819713         0.755276        -0.307629
 H        -0.184444        -0.854126        -0.973098
 H         4.095839         1.048211        -0.874985
 H         2.964083         2.739510         1.299879
