19
Iteration:  2593charge 0 multiplicity 1
 C         4.477673        -0.434197         1.780772
 C         3.372679        -0.168593         0.834857
 C         2.248093        -1.183747         0.700761
 C         1.366560        -0.077561         0.040817
 C        -0.098871        -0.044899        -0.006578
 O         2.178408         0.027600        -1.208782
 C         3.285098         0.670281        -0.485322
 C         2.428332         1.013466         0.661126
 O         2.344340         2.055212         1.569846
 H         4.859372        -1.457835         1.646047
 H         5.363645         0.198628         1.836224
 H         4.382345        -0.281958         2.853333
 H         2.414088        -2.159322         0.093370
 H         2.035753        -1.626221         1.707561
 H        -0.629104        -0.200515         0.944654
 H        -0.292146         0.957139        -0.327698
 H        -0.478949        -0.779547        -0.637436
 H         4.109112         1.257174        -1.019039
 H         1.778653         2.731713         1.293728
