19
Iteration:  4149
 C         4.522378        -0.350689         1.725646
 C         3.316827        -0.256303         0.932907
 C         2.211240        -1.299428         0.691800
 C         1.405114        -0.086928        -0.007846
 C        -0.050648        -0.000803         0.035468
 O         2.204102         0.144732        -1.248420
 C         3.235218         0.632505        -0.411412
 C         2.416933         0.926608         0.746419
 O         2.327032         2.081457         1.486643
 H         5.179683        -1.177827         1.440827
 H         5.074436         0.747681         1.538212
 H         4.314827        -0.507515         2.772203
 H         2.400029        -2.194616         0.044538
 H         1.943439        -1.621764         1.699604
 H        -0.304080         0.095274         1.116451
 H        -0.219861         0.962058        -0.486399
 H        -0.462567        -0.975122        -0.381183
 H         4.198618         1.079368        -0.751111
 H         1.553237         2.455682         1.124601
