19
Iteration:  4591charge 0 multiplicity 1
 C         4.673515        -0.403050         1.610266
 C         3.377839        -0.254508         0.866884
 C         2.188951        -1.277087         0.753327
 C         1.410004        -0.138396         0.032588
 C        -0.090137        -0.018404        -0.096434
 O         2.192268         0.086495        -1.174525
 C         3.250522         0.680505        -0.404687
 C         2.407546         0.966999         0.768832
 O         2.156822         2.118298         1.599289
 H         5.242667        -1.167264         1.169014
 H         5.190388         0.581870         1.726354
 H         4.515266        -0.807293         2.591466
 H         2.528992        -2.007720         0.119003
 H         1.936556        -1.580525         1.748617
 H        -0.468916         0.274547         0.893905
 H        -0.289508         0.833779        -0.775406
 H        -0.608710        -0.960219        -0.412051
 H         4.109758         1.248109        -0.944231
 H         2.490337         2.893674         1.211235
