19
Iteration:  3049
 C         4.699297        -0.279418         1.682443
 C         3.371419        -0.278039         0.853207
 C         2.107844        -1.140484         0.840811
 C         1.452876        -0.046904         0.047383
 C        -0.073494        -0.058731        -0.188162
 O         2.134508         0.059479        -1.267471
 C         3.165778         0.547908        -0.438262
 C         2.439979         0.948979         0.754892
 O         2.313959         2.032940         1.683515
 H         5.295765        -1.311889         1.474734
 H         5.320811         0.567435         1.368357
 H         4.299990        -0.254581         2.760545
 H         2.122904        -2.150503         0.342766
 H         1.670753        -1.066432         1.891442
 H        -0.753868        -0.523222         0.529977
 H        -0.482195         0.917327        -0.417022
 H        -0.177122        -0.606096        -1.061661
 H         4.024511         1.044320        -1.017954
 H         2.397757         2.840834         1.338472
