19
Iteration:  4560
 C         4.661997        -0.272456         1.605734
 C         3.367234        -0.243986         0.892156
 C         2.137616        -1.231550         0.791202
 C         1.398638        -0.079059         0.019844
 C        -0.045177         0.035008        -0.132259
 O         2.169093         0.067141        -1.233897
 C         3.248301         0.594506        -0.463972
 C         2.412774         0.911288         0.827618
 O         2.263287         2.016668         1.657467
 H         5.313580        -1.004694         1.011594
 H         5.246781         0.654574         1.740532
 H         4.493917        -0.633429         2.643424
 H         2.516090        -2.081325         0.295704
 H         1.852239        -1.619400         1.805321
 H        -0.557350         0.356804         0.814375
 H        -0.329702         0.760058        -0.891453
 H        -0.502371        -0.940133        -0.513267
 H         4.157774         1.124902        -0.998060
 H         1.572968         2.732929         1.324894
