19
Iteration:   433
 C         4.625553        -0.306365         1.715784
 C         3.289712        -0.211399         0.986096
 C         2.126142        -1.260159         0.752276
 C         1.369149        -0.128366         0.010815
 C        -0.062337         0.018318        -0.179276
 O         2.138481         0.084349        -1.268721
 C         3.227046         0.636230        -0.403119
 C         2.393098         0.930845         0.809460
 O         2.458550         2.010401         1.589472
 H         5.311173        -1.007409         1.346259
 H         5.136892         0.688314         1.667698
 H         4.523341        -0.392760         2.769756
 H         2.412358        -2.034241        -0.019766
 H         1.515388        -1.862168         1.553671
 H        -0.555548        -0.010460         0.786336
 H        -0.206025         1.064061        -0.551075
 H        -0.571673        -0.738575        -0.811718
 H         4.141967         1.106269        -0.778319
 H         1.980849         2.776453         1.094494
