19
Iteration:   293
 C         4.694589        -0.391329         1.577668
 C         3.327253        -0.282106         1.098804
 C         2.139551        -1.185644         0.938621
 C         1.463154        -0.051067         0.007873
 C         0.053177         0.040814        -0.223342
 O         2.091060         0.122275        -1.312169
 C         3.175442         0.544375        -0.423696
 C         2.382652         0.946257         0.787171
 O         2.261889         2.073624         1.504021
 H         5.225737        -1.279512         1.239099
 H         5.291530         0.601733         1.372336
 H         4.628990        -0.400389         2.696429
 H         2.308754        -2.063214         0.423470
 H         1.536322        -1.438826         1.822621
 H        -0.482919         0.164975         0.718880
 H        -0.064366         1.054480        -0.688588
 H        -0.365165        -0.783480        -0.826806
 H         4.044478         1.088866        -0.828598
 H         2.252737         1.728080         2.327746
