19
Iteration:  3795
 C         4.547790        -0.376593         1.744315
 C         3.423467        -0.306216         0.844587
 C         2.201216        -1.332838         0.745804
 C         1.388090        -0.132055         0.069629
 C        -0.029968         0.063650        -0.041301
 O         2.183000         0.122215        -1.237125
 C         3.200062         0.721048        -0.508497
 C         2.450782         0.914856         0.752222
 O         2.247522         2.119699         1.570897
 H         5.302681        -1.198357         1.579359
 H         5.103013         0.510998         1.521526
 H         4.250857        -0.438104         2.810861
 H         2.471200        -2.258660         0.135262
 H         1.827445        -1.631417         1.809420
 H        -0.438663        -0.098460         1.040168
 H        -0.501006         0.874498        -0.615073
 H        -0.494929        -0.839143        -0.305100
 H         4.001172         1.121003        -1.054291
 H         2.270976         2.727475         0.944647
