19
Iteration:  3202charge 0 multiplicity 1
 C         4.705707        -0.401093         1.601344
 C         3.434705        -0.273492         0.855720
 C         2.198043        -1.149528         0.857157
 C         1.416861        -0.069193         0.004888
 C        -0.108045         0.023994        -0.187950
 O         2.164041         0.048377        -1.209133
 C         3.273603         0.579522        -0.419447
 C         2.412734         1.014018         0.751948
 O         2.116533         2.041802         1.673254
 H         5.153285        -1.385429         1.185016
 H         5.410021         0.332837         1.505652
 H         4.608137        -0.466565         2.704531
 H         2.260659        -2.176710         0.447788
 H         1.965085        -1.245966         1.941408
 H        -0.719251         0.089322         0.739815
 H        -0.279279         0.962115        -0.828679
 H        -0.618960        -0.790636        -0.768566
 H         4.159297         0.888062        -0.884125
 H         2.420654         2.917307         1.460074
