19
Iteration:  4611charge 0 multiplicity 1
 C         4.662654        -0.473803         1.639122
 C         3.416400        -0.247509         0.940731
 C         2.245883        -1.229584         0.703737
 C         1.437099        -0.008943         0.102203
 C        -0.015651        -0.079307        -0.052451
 O         2.117616         0.164268        -1.284872
 C         3.240731         0.585107        -0.438946
 C         2.387622         0.955576         0.852698
 O         2.113302         2.114416         1.534204
 H         5.206816        -1.234010         1.167422
 H         5.194094         0.506660         1.803296
 H         4.522701        -0.681645         2.668031
 H         2.404907        -2.199623         0.173559
 H         1.770543        -1.349761         1.654728
 H        -0.486568         0.007747         0.890614
 H        -0.465403         0.772205        -0.621082
 H        -0.293995        -0.996770        -0.553890
 H         4.221769         0.984051        -0.777496
 H         2.582898         2.976875         1.129719
