19
Iteration:  2748charge 0 multiplicity 1
 C         4.600124        -0.465399         1.683468
 C         3.332903        -0.256350         0.962997
 C         2.224461        -1.221560         0.741452
 C         1.434025        -0.072709         0.052592
 C        -0.046405         0.022792         0.044024
 O         2.244826         0.112788        -1.262691
 C         3.244437         0.628890        -0.392223
 C         2.427588         0.925414         0.765167
 O         2.128772         2.117264         1.461593
 H         5.352321        -0.942305         0.916270
 H         5.089535         0.531476         1.870169
 H         4.504690        -1.261329         2.466899
 H         2.366979        -2.091016        -0.016060
 H         1.557883        -1.350621         1.682920
 H        -0.473512         0.219021         1.002539
 H        -0.350619         0.738381        -0.726340
 H        -0.387575        -0.886712        -0.378562
 H         4.042795         1.091606        -0.852980
 H         2.568507         2.799679         1.055214
