19
Iteration:  1703
 C         4.711852        -0.370176         1.695684
 C         3.404092        -0.248832         0.824165
 C         2.228689        -1.285102         0.742082
 C         1.379243        -0.116555         0.115280
 C        -0.065232         0.156101        -0.146532
 O         2.130649         0.137935        -1.214525
 C         3.228489         0.652735        -0.429544
 C         2.438543         0.893143         0.769002
 O         2.173140         1.984289         1.625477
 H         5.363023        -1.315476         1.629789
 H         5.388228         0.532122         1.549866
 H         4.296776        -0.401495         2.661341
 H         2.393365        -2.148697         0.129074
 H         1.737128        -1.727914         1.673658
 H        -0.619742         0.075071         0.790909
 H        -0.031128         1.071632        -0.645409
 H        -0.467616        -0.633733        -0.743777
 H         4.021128         1.033482        -1.033261
 H         2.004530         2.642032         1.065906
