19
Iteration:  4906
 C         4.587169        -0.277603         1.634462
 C         3.359393        -0.189477         0.876549
 C         2.227655        -1.236764         0.794215
 C         1.430698        -0.025680         0.015837
 C        -0.075757         0.032104        -0.124276
 O         2.144407        -0.039754        -1.229491
 C         3.230679         0.606158        -0.462255
 C         2.429933         1.018410         0.755237
 O         2.302823         1.947703         1.704851
 H         5.225548        -0.940979         1.162986
 H         5.241058         0.640079         1.627913
 H         4.317559        -0.346861         2.651026
 H         2.525677        -2.095534         0.148954
 H         1.725911        -1.539358         1.661949
 H        -0.615098        -0.369404         0.791799
 H        -0.479529         0.965709        -0.433939
 H        -0.347566        -0.668091        -0.921998
 H         3.977692         1.120027        -1.002786
 H         1.857009         2.833358         1.327487
