19
Iteration:  4703charge 0 multiplicity 1
 C         4.685008        -0.253967         1.629627
 C         3.391216        -0.295389         0.821657
 C         2.178383        -1.216995         0.769298
 C         1.397143        -0.060652         0.068573
 C        -0.052337        -0.018668        -0.173304
 O         2.135640         0.113262        -1.179849
 C         3.275962         0.538874        -0.500420
 C         2.377043         0.984027         0.794663
 O         2.266614         1.961016         1.687428
 H         5.428037        -1.094970         1.526032
 H         5.125038         0.699678         1.700317
 H         4.403528        -0.333805         2.721329
 H         2.325078        -2.179438         0.372589
 H         1.608800        -1.223432         1.761727
 H        -0.652570        -0.242420         0.777247
 H        -0.430342         0.986715        -0.399378
 H        -0.358918        -0.655701        -1.037175
 H         3.918537         1.159116        -1.057096
 H         2.028462         2.821033         1.085772
