19
Iteration:  3044
 C         4.699597        -0.274580         1.639027
 C         3.375694        -0.265339         0.915250
 C         2.145768        -1.161580         0.831934
 C         1.414990        -0.052093         0.045078
 C        -0.096579        -0.021007        -0.242243
 O         2.117185         0.074544        -1.232516
 C         3.210947         0.504521        -0.436510
 C         2.400707         0.966108         0.783501
 O         2.329833         2.007668         1.686869
 H         5.269699        -1.102039         1.521626
 H         5.352104         0.564241         1.331040
 H         4.322320        -0.147357         2.634375
 H         2.152061        -2.141172         0.389570
 H         1.781491        -1.258125         1.836308
 H        -0.619469        -0.543048         0.583684
 H        -0.419792         1.017460        -0.473834
 H        -0.343423        -0.723261        -1.162712
 H         3.962582         1.008110        -0.933022
 H         2.434556         2.912009         1.068454
