19
Iteration:   849
 C         4.619316        -0.400869         1.631126
 C         3.309375        -0.284491         0.869608
 C         2.158381        -1.218752         0.804068
 C         1.375567        -0.032143         0.027389
 C        -0.083952        -0.019178        -0.237665
 O         2.190184         0.128673        -1.214310
 C         3.305312         0.569893        -0.433517
 C         2.382791         0.973716         0.752975
 O         2.318657         2.062566         1.759974
 H         5.131332        -1.318439         1.451171
 H         5.219107         0.385420         1.175929
 H         4.649995        -0.196954         2.672725
 H         2.391584        -2.115191         0.171217
 H         1.765798        -1.598633         1.827731
 H        -0.602846        -0.089027         0.785409
 H        -0.412640         0.941438        -0.616187
 H        -0.395720        -0.874894        -0.870343
 H         4.096097         1.014999        -1.028696
 H         2.073025         2.992659         1.231542
