19
Iteration:  2459charge 0 multiplicity 1
 C         4.651394        -0.373695         1.734998
 C         3.357980        -0.279119         0.879060
 C         2.129013        -1.217286         0.786364
 C         1.475193        -0.109541         0.099859
 C        -0.075279        -0.029625        -0.067446
 O         2.138680         0.134943        -1.269631
 C         3.282507         0.661115        -0.487266
 C         2.476240         0.928392         0.732334
 O         2.194131         2.076662         1.575790
 H         5.095811        -1.286557         1.424571
 H         5.386234         0.511906         1.539208
 H         4.236438        -0.326739         2.672163
 H         2.113754        -2.213491         0.189636
 H         1.547077        -1.177338         1.764662
 H        -0.623785        -0.399566         0.774384
 H        -0.451950         0.940168        -0.260091
 H        -0.318271        -0.744304        -0.767489
 H         4.286150         0.812764        -0.955000
 H         2.694691         2.795837         1.075295
