19
Iteration:  4164
 C         4.567661        -0.373415         1.690324
 C         3.362721        -0.242965         0.900545
 C         2.261633        -1.274283         0.756304
 C         1.470716        -0.076699         0.021719
 C        -0.059764         0.068440        -0.025019
 O         2.128942         0.098109        -1.241788
 C         3.333530         0.590906        -0.397950
 C         2.389640         0.950148         0.763897
 O         2.237545         2.032917         1.510928
 H         5.230933        -1.125141         1.228946
 H         5.158553         0.618565         1.775066
 H         4.369920        -0.571992         2.789039
 H         2.618616        -2.015514         0.021361
 H         1.603659        -1.594726         1.666773
 H        -0.423674         0.171523         1.039099
 H        -0.635665         0.786645        -0.615029
 H        -0.610050        -0.783050        -0.405699
 H         4.111557         1.073407        -0.900525
 H         1.661110         2.894510         1.065595
