19
Iteration:  4961
 C         4.581527        -0.349474         1.710748
 C         3.356634        -0.236097         0.875744
 C         2.204162        -1.280820         0.717180
 C         1.465377        -0.099893         0.064350
 C        -0.033197        -0.029205        -0.004896
 O         2.167087         0.151560        -1.234884
 C         3.225407         0.704685        -0.424662
 C         2.393571         0.927472         0.769749
 O         2.262146         2.011294         1.539829
 H         5.138085        -1.158299         1.286332
 H         5.125477         0.629329         1.546658
 H         4.513287        -0.591680         2.778344
 H         2.192739        -2.174953         0.064672
 H         1.878382        -1.612047         1.661024
 H        -0.458390         0.465789         0.910855
 H        -0.294687         0.600781        -0.837528
 H        -0.404234        -1.010608        -0.279507
 H         4.098216         1.099561        -0.956745
 H         1.880849         2.766248         0.941341
