19
Iteration:   715
 C         4.508869        -0.513071         1.765600
 C         3.406008        -0.240243         0.870213
 C         2.170259        -1.229432         0.778085
 C         1.463304        -0.023542         0.046109
 C        -0.003883        -0.062912        -0.016458
 O         2.134535         0.178066        -1.238595
 C         3.263737         0.748988        -0.543186
 C         2.543842         0.917841         0.743966
 O         2.206695         2.058534         1.527664
 H         5.132140        -1.359606         1.426905
 H         5.052644         0.289188         1.925637
 H         3.985998        -0.754312         2.705628
 H         2.049781        -2.187862         0.196132
 H         1.778266        -1.374313         1.773866
 H        -0.237099        -0.187496         1.017629
 H        -0.357111         0.910662        -0.467594
 H        -0.462877        -0.874057        -0.578242
 H         4.257918         1.147866        -0.876214
 H         1.976409         2.698643         1.004950
