19
Iteration:  1636charge 0 multiplicity 1
 C         4.639346        -0.357766         1.581994
 C         3.317067        -0.222315         0.895785
 C         2.107603        -1.179576         0.805946
 C         1.425331         0.029569         0.009620
 C        -0.096587        -0.079067        -0.171572
 O         2.148435         0.191078        -1.250077
 C         3.300173         0.597401        -0.386133
 C         2.447006         0.925361         0.764479
 O         2.332890         1.961163         1.679367
 H         5.173561        -1.381486         1.628010
 H         5.349690         0.479438         1.427940
 H         4.371698        -0.322511         2.643914
 H         2.124753        -2.145802         0.304596
 H         1.648556        -1.379529         1.816055
 H        -0.654584        -0.473208         0.685345
 H        -0.744341         0.636616        -0.604101
 H        -0.149836        -0.964513        -0.782107
 H         4.175264         1.035416        -0.841885
 H         2.186077         2.781357         1.343570
