19
Iteration:  3298
 C         4.472041        -0.387747         1.719624
 C         3.378611        -0.268767         0.800791
 C         2.231192        -1.184770         0.829142
 C         1.439719        -0.056239         0.062527
 C        -0.033947        -0.084688        -0.078584
 O         2.078976         0.149045        -1.191764
 C         3.304693         0.660452        -0.462966
 C         2.464394         0.961194         0.695239
 O         2.288549         2.030606         1.557140
 H         5.140129        -1.002378         1.214615
 H         4.933914         0.562244         2.097365
 H         4.119822        -0.806720         2.709575
 H         2.351770        -2.162091         0.432883
 H         1.877333        -1.307243         1.850124
 H        -0.513405        -0.483214         0.814878
 H        -0.432841         0.868607        -0.401407
 H        -0.362628        -0.846588        -0.846043
 H         4.126014         1.054460        -0.957627
 H         2.655762         2.837440         0.939168
