19
Iteration:   189charge 0 multiplicity 1
 C         4.582085        -0.472136         1.748874
 C         3.367941        -0.277405         0.856196
 C         2.138833        -1.225249         0.675086
 C         1.405121        -0.020571         0.133267
 C        -0.060295        -0.006074        -0.024199
 O         2.207735         0.041805        -1.196854
 C         3.284724         0.652687        -0.347411
 C         2.418140         0.966010         0.723982
 O         2.268797         2.211935         1.350395
 H         5.297070        -1.216905         1.337300
 H         5.141593         0.389804         1.902735
 H         4.283902        -0.854723         2.724781
 H         2.283941        -1.950109        -0.120906
 H         1.745404        -1.669093         1.582988
 H        -0.487837        -0.235692         0.955236
 H        -0.449271         0.919283        -0.448333
 H        -0.326083        -0.843142        -0.683804
 H         4.067511         1.304923        -0.786791
 H         2.041072         1.958356         2.369382
