19
Iteration:  3416
 C         4.584845        -0.483542         1.710603
 C         3.382259        -0.202269         0.785994
 C         2.258064        -1.157462         0.806076
 C         1.464775        -0.113137         0.070071
 C        -0.053348         0.054972        -0.057690
 O         2.202534         0.033323        -1.232120
 C         3.244410         0.610557        -0.536033
 C         2.451144         1.015579         0.744406
 O         2.130341         2.070486         1.632228
 H         4.947157        -1.412938         1.310868
 H         5.449924         0.330284         1.759759
 H         4.231548        -0.608805         2.759955
 H         2.408163        -2.203565         0.311077
 H         1.772740        -1.265574         1.823765
 H        -0.495276        -0.191039         0.899054
 H        -0.293152         0.980087        -0.508222
 H        -0.388659        -0.776044        -0.720404
 H         4.065616         1.051538        -1.056742
 H         1.848786         2.998450         1.227705
