19
Iteration:  3173charge 0 multiplicity 1
 C         4.628005        -0.390711         1.594486
 C         3.289728        -0.211311         0.995296
 C         2.103653        -1.178917         0.810597
 C         1.491473        -0.070309         0.034374
 C         0.004363         0.000875        -0.075321
 O         2.241425        -0.007323        -1.215542
 C         3.191908         0.727887        -0.496394
 C         2.515164         0.973751         0.731378
 O         2.126195         1.988353         1.615839
 H         4.924607        -1.300851         0.965743
 H         5.250047         0.621089         1.444255
 H         4.611992        -0.704990         2.623668
 H         2.242242        -2.062659         0.085587
 H         1.643514        -1.383438         1.784037
 H        -0.492618         0.418790         0.779801
 H        -0.204166         0.773083        -0.815300
 H        -0.445608        -0.882385        -0.443047
 H         4.105782         0.939290        -0.992412
 H         2.644753         2.925204         1.525571
