19
Iteration:   498charge 0 multiplicity 1
 C         4.694746        -0.457634         1.633719
 C         3.367716        -0.156084         0.890988
 C         2.112806        -1.097848         0.875522
 C         1.431763        -0.041688        -0.018291
 C        -0.093926        -0.017170        -0.256511
 O         2.203728         0.017328        -1.253746
 C         3.276838         0.574719        -0.468749
 C         2.343259         1.004133         0.764349
 O         2.267159         2.011072         1.748427
 H         5.021063        -1.399013         1.215976
 H         5.449455         0.368136         1.633720
 H         4.452382        -0.552028         2.681559
 H         2.351530        -2.075138         0.426796
 H         1.637573        -1.286896         1.872817
 H        -0.485920        -0.067810         0.746352
 H        -0.527196         0.944524        -0.589199
 H        -0.459908        -0.923134        -0.733614
 H         3.984587         1.097041        -1.077324
 H         2.303247         2.995953         1.348742
