19
Iteration:  1592charge 0 multiplicity 1
 C         4.552284        -0.479041         1.763906
 C         3.349729        -0.200087         0.835193
 C         2.329803        -1.266239         0.656997
 C         1.361424        -0.045526         0.075626
 C        -0.096604        -0.036934        -0.129186
 O         2.174112         0.147582        -1.220021
 C         3.137357         0.639997        -0.351324
 C         2.344317         0.965924         0.827710
 O         2.393209         2.114707         1.531071
 H         5.240978        -1.233143         1.163639
 H         5.086607         0.387197         2.174409
 H         4.347255        -1.173504         2.599875
 H         2.667847        -2.008753        -0.072807
 H         2.064391        -1.827841         1.572729
 H        -0.453821        -0.028379         0.910878
 H        -0.518154         0.893270        -0.430224
 H        -0.483101        -0.908879        -0.636946
 H         3.908144         1.313316        -0.806249
 H         2.181656         2.720425         0.892272
