19
Iteration:  2335
 C         4.677073        -0.354006         1.526495
 C         3.280160        -0.208142         0.957037
 C         2.122052        -1.171736         0.754794
 C         1.407138        -0.078911         0.048684
 C        -0.042175         0.023910        -0.141585
 O         2.266772         0.047094        -1.170856
 C         3.266713         0.551764        -0.388373
 C         2.347075         0.912648         0.797914
 O         2.263839         2.071129         1.608583
 H         5.203457        -1.012626         0.762061
 H         4.916542         0.700617         1.680964
 H         4.702838        -0.965427         2.515965
 H         2.183626        -2.131821         0.132165
 H         1.584842        -1.377244         1.758725
 H        -0.423199         0.233388         0.826215
 H        -0.255208         0.825072        -0.832616
 H        -0.506064        -0.931005        -0.480977
 H         4.204224         0.939611        -0.639233
 H         2.063431         2.978955         1.110593
