19
Iteration:  1773charge 0 multiplicity 1
 C         4.616391        -0.545729         1.732733
 C         3.387419        -0.222036         0.837279
 C         2.200164        -1.150001         0.706189
 C         1.477964        -0.040673        -0.005538
 C        -0.086997        -0.091648        -0.027942
 O         2.166010         0.123562        -1.229632
 C         3.223406         0.630295        -0.438902
 C         2.418112         0.960328         0.812439
 O         2.250160         2.159149         1.577929
 H         5.431144        -1.000345         1.228710
 H         5.008697         0.377865         2.197843
 H         4.228706        -1.323623         2.477583
 H         2.443029        -2.004594         0.036385
 H         1.734196        -1.544909         1.540501
 H        -0.386003        -0.209997         1.007915
 H        -0.420212         0.876188        -0.500090
 H        -0.525801        -0.983755        -0.513592
 H         4.062871         1.189230        -0.870752
 H         1.788316         2.881046         0.918552
