19
Iteration:  1099
 C         4.583155        -0.414519         1.772734
 C         3.405717        -0.286480         0.871247
 C         2.223147        -1.272831         0.666214
 C         1.390708        -0.091086         0.066254
 C        -0.088709         0.050045        -0.083380
 O         2.208582         0.154120        -1.210709
 C         3.162305         0.693115        -0.440176
 C         2.375327         0.907498         0.823717
 O         2.312702         2.042351         1.548409
 H         5.276332        -1.169381         1.189158
 H         5.181595         0.516255         1.907975
 H         4.475129        -0.910862         2.781025
 H         2.448489        -1.971843        -0.148150
 H         1.668653        -1.716420         1.472764
 H        -0.481915         0.067138         0.955409
 H        -0.357266         1.007683        -0.492655
 H        -0.632744        -0.724840        -0.628186
 H         3.973950         1.153711        -0.973437
 H         2.346398         2.835909         0.908211
