19
Iteration:  1835charge 0 multiplicity 1
 C         4.662076        -0.264697         1.582981
 C         3.268225        -0.255822         0.916934
 C         2.093177        -1.249108         0.776619
 C         1.343365        -0.084134        -0.033044
 C        -0.130141        -0.043305        -0.186678
 O         2.275420         0.059012        -1.188745
 C         3.270534         0.585698        -0.383126
 C         2.386381         1.023701         0.753854
 O         2.392894         2.008464         1.776302
 H         5.225116        -1.149938         1.200942
 H         5.248533         0.609348         1.074470
 H         4.778351        -0.163519         2.621017
 H         2.098966        -2.128298         0.051965
 H         1.393626        -1.538814         1.685982
 H        -0.713234        -0.226044         0.722311
 H        -0.420271         0.910944        -0.640773
 H        -0.431445        -0.705997        -1.017169
 H         4.096268         1.081548        -0.965672
 H         2.171973         2.937221         1.240898
