19
Iteration:   400charge 0 multiplicity 1
 C         4.549586        -0.468582         1.794344
 C         3.437985        -0.268173         0.823704
 C         2.161167        -1.205252         0.635534
 C         1.446466        -0.076134         0.018394
 C        -0.066002         0.025570         0.033483
 O         2.138189         0.090951        -1.231598
 C         3.325665         0.598185        -0.402672
 C         2.456026         0.918906         0.743230
 O         2.164045         2.143259         1.502906
 H         5.318083        -1.155721         1.606079
 H         4.941598         0.568658         1.982078
 H         4.011141        -0.671689         2.707602
 H         2.354205        -2.038700        -0.119429
 H         1.813038        -1.665718         1.660267
 H        -0.329875        -0.055694         1.095368
 H        -0.351136         1.073277        -0.273160
 H        -0.617822        -0.737246        -0.546946
 H         4.237298         1.088303        -0.803182
 H         2.909990         2.812356         1.081834
