19
Iteration:  1055charge 0 multiplicity 1
 C         4.531298        -0.416192         1.805350
 C         3.347297        -0.251295         0.869864
 C         2.154280        -1.230050         0.613590
 C         1.417471         0.054990         0.037603
 C        -0.070574        -0.090778        -0.035495
 O         2.163165         0.178845        -1.234164
 C         3.269942         0.636073        -0.508632
 C         2.481155         0.967124         0.742372
 O         2.338102         2.021568         1.622865
 H         4.867576        -1.523108         1.601136
 H         5.338831         0.309209         1.576294
 H         4.315151        -0.363201         2.930368
 H         2.091354        -2.178721         0.092976
 H         1.899295        -1.328656         1.639597
 H        -0.385444        -0.395659         0.988008
 H        -0.634015         0.780833        -0.312419
 H        -0.276601        -0.905822        -0.720636
 H         4.185272         1.036925        -0.980435
 H         1.870972         2.590473         1.158398
