19
Iteration:  3520
 C         4.625326        -0.398837         1.696300
 C         3.372933        -0.125716         0.842670
 C         2.246434        -1.106195         0.832873
 C         1.413027        -0.078177        -0.000844
 C        -0.140647        -0.069351        -0.174666
 O         2.188410        -0.019084        -1.218705
 C         3.250484         0.605240        -0.510948
 C         2.367696         1.035602         0.765339
 O         2.304125         2.006545         1.693548
 H         5.180574        -1.254401         1.152347
 H         5.365304         0.326454         1.794133
 H         4.311141        -0.934791         2.628788
 H         2.323962        -2.082532         0.450790
 H         1.769263        -1.098004         1.804865
 H        -0.644910         0.024358         0.802056
 H        -0.448852         0.912602        -0.599654
 H        -0.613087        -0.786000        -0.749918
 H         3.954612         1.090381        -1.113146
 H         2.160729         2.908304         1.316586
