19
Iteration:  3382
 C         4.717696        -0.408733         1.618614
 C         3.377187        -0.274567         0.952448
 C         2.128011        -1.189678         0.782000
 C         1.477332        -0.069308        -0.006641
 C        -0.021481         0.077911        -0.124094
 O         2.178508         0.095277        -1.186159
 C         3.227515         0.576500        -0.410550
 C         2.412017         0.942480         0.749772
 O         2.177979         2.061010         1.576710
 H         5.261941        -1.348801         1.327084
 H         5.393442         0.542345         1.487088
 H         4.600869        -0.547813         2.707623
 H         2.317615        -2.252481         0.297811
 H         1.740846        -1.190161         1.833725
 H        -0.468826         0.355825         0.842936
 H        -0.419390         0.847925        -0.765325
 H        -0.301347        -0.923832        -0.517332
 H         3.978629         1.019304        -0.954547
 H         1.233586         2.402299         1.245195
