19
Iteration:  4198
 C         4.687943        -0.426940         1.627095
 C         3.447410        -0.271504         0.861434
 C         2.155999        -1.213944         0.867656
 C         1.449291        -0.059122         0.085217
 C        -0.047754         0.069077        -0.154069
 O         2.178201        -0.008406        -1.225388
 C         3.210254         0.675088        -0.447816
 C         2.436735         1.017179         0.758782
 O         2.102270         2.035642         1.597562
 H         5.488868        -1.075079         1.149198
 H         5.061484         0.602709         1.647392
 H         4.519978        -0.847542         2.679827
 H         2.241926        -2.204715         0.379369
 H         1.566275        -1.386341         1.840085
 H        -0.544426         0.167994         0.805341
 H        -0.222910         0.923930        -0.791108
 H        -0.277732        -0.893826        -0.522678
 H         4.053172         1.173487        -1.022548
 H         2.399949         2.881112         1.193155
