19
Iteration:  1236charge 0 multiplicity 1
 C         4.526567        -0.460752         1.758229
 C         3.328323        -0.230265         0.856210
 C         2.130625        -1.349275         0.605459
 C         1.418112        -0.052046         0.000004
 C        -0.129153        -0.077020        -0.014145
 O         2.291852         0.237011        -1.246309
 C         3.282231         0.679786        -0.452839
 C         2.386099         0.933191         0.798481
 O         2.314531         2.081084         1.653193
 H         4.980386        -1.438564         1.659018
 H         5.373513         0.189688         1.193162
 H         4.245326        -0.046805         2.748440
 H         2.303507        -2.261137         0.065743
 H         1.783948        -1.420291         1.625396
 H        -0.407288        -0.342311         1.032706
 H        -0.666506         0.809212        -0.315684
 H        -0.413471        -0.862153        -0.694276
 H         3.981643         1.276740        -1.020229
 H         2.663769         2.945930         1.071666
