19
Iteration:  1492charge 0 multiplicity 1
 C         4.591274        -0.286837         1.561438
 C         3.336884        -0.189587         0.862623
 C         2.260783        -1.287330         0.771028
 C         1.401677        -0.180913         0.085934
 C        -0.016358         0.159705        -0.268714
 O         2.160092         0.072221        -1.194482
 C         3.215344         0.572898        -0.398124
 C         2.385956         0.952030         0.832597
 O         2.295428         1.978541         1.735636
 H         5.078120        -1.389917         1.442236
 H         5.440447         0.305998         1.311726
 H         4.394068        -0.319878         2.712460
 H         2.185784        -2.184656         0.115275
 H         1.789064        -1.624557         1.649715
 H        -0.672086         0.249723         0.561533
 H         0.001078         1.080493        -0.862134
 H        -0.600980        -0.491266        -0.894684
 H         4.027434         1.049584        -0.885558
 H         1.823089         2.886976         1.330695
