19
Iteration:   612
 C         4.612971        -0.419311         1.706767
 C         3.383843        -0.217870         0.871232
 C         2.177645        -1.200336         0.796110
 C         1.370336        -0.046459         0.044981
 C        -0.098230         0.044185        -0.191138
 O         2.145171         0.009755        -1.223879
 C         3.296979         0.641938        -0.477645
 C         2.511293         1.036426         0.708563
 O         2.238715         2.013709         1.665584
 H         5.211181        -1.139389         1.235329
 H         5.184571         0.442650         2.006045
 H         4.349460        -0.840728         2.666994
 H         2.341465        -2.223527         0.293475
 H         1.728609        -1.376044         1.827584
 H        -0.424780        -0.088528         0.871666
 H        -0.519435         1.014907        -0.350488
 H        -0.431652        -0.781094        -0.835570
 H         4.157591         0.930056        -1.094273
 H         2.061391         2.882473         1.295029
