19
Iteration:  3723
 C         4.619753        -0.360941         1.599218
 C         3.358082        -0.272212         0.863926
 C         2.207776        -1.211371         0.849386
 C         1.414212        -0.010643         0.047225
 C        -0.005151         0.023846        -0.174591
 O         2.113278         0.102901        -1.189373
 C         3.257591         0.557536        -0.356916
 C         2.336280         0.886871         0.864697
 O         2.328646         2.066130         1.508026
 H         5.226750        -1.165815         1.232153
 H         5.296652         0.592984         1.345196
 H         4.603594        -0.415376         2.673988
 H         2.285393        -2.103734         0.237155
 H         1.928138        -1.341378         1.850636
 H        -0.530443        -0.142046         0.726894
 H        -0.355198         0.848359        -0.787935
 H        -0.535374        -0.849089        -0.714819
 H         4.032575         1.229684        -0.735106
 H         1.575007         2.543484         1.251629
