19
Iteration:   720
 C         4.508682        -0.528209         1.775747
 C         3.407961        -0.252882         0.860050
 C         2.188964        -1.263515         0.789988
 C         1.459028        -0.022852         0.002978
 C        -0.003351        -0.042111         0.034928
 O         2.109751         0.195754        -1.279826
 C         3.309548         0.753673        -0.488475
 C         2.507263         0.938729         0.748587
 O         2.220684         2.053547         1.506366
 H         5.131115        -1.367958         1.464847
 H         5.154571         0.473949         2.003924
 H         3.922623        -0.869463         2.647497
 H         2.131581        -2.176548         0.209834
 H         1.766415        -1.426004         1.823218
 H        -0.309729        -0.216800         1.107969
 H        -0.333934         0.853657        -0.461054
 H        -0.398723        -0.862119        -0.606098
 H         4.257495         1.077414        -0.864472
 H         1.716692         2.797275         0.848545
