19
Iteration:  4101charge 0 multiplicity 1
 C         4.544066        -0.313108         1.669879
 C         3.378776        -0.182644         0.880619
 C         2.225298        -1.209879         0.833246
 C         1.419713        -0.085733         0.105145
 C        -0.088743        -0.069390        -0.108098
 O         2.132226         0.103748        -1.194418
 C         3.288067         0.613253        -0.535870
 C         2.423339         0.949919         0.697591
 O         2.279879         2.016585         1.617684
 H         4.879476        -1.362545         1.380231
 H         5.287353         0.397323         1.595089
 H         4.195977        -0.474857         2.737630
 H         2.363492        -2.089451         0.237736
 H         1.638980        -1.345595         1.730176
 H        -0.647410        -0.313494         0.764370
 H        -0.228369         0.944699        -0.471375
 H        -0.245123        -0.789402        -0.890814
 H         4.182473         1.008543        -0.950757
 H         2.550090         2.930378         1.079509
