19
Iteration:  4717charge 0 multiplicity 1
 C         4.645521        -0.202926         1.666760
 C         3.365438        -0.225075         0.816246
 C         2.131398        -1.226621         0.782736
 C         1.431150        -0.098578        -0.008412
 C        -0.069607        -0.005477        -0.149779
 O         2.128520         0.077916        -1.228077
 C         3.255928         0.583659        -0.434062
 C         2.421725         0.912272         0.713852
 O         2.264685         1.990322         1.758869
 H         5.314428        -0.916863         1.077387
 H         5.226404         0.690608         1.417743
 H         4.444632        -0.403958         2.777973
 H         2.033178        -2.250858         0.319265
 H         1.957626        -1.348462         1.846508
 H        -0.490946        -0.240418         0.812034
 H        -0.285977         1.025322        -0.580487
 H        -0.378686        -0.815662        -0.837883
 H         4.181312         0.775759        -0.895172
 H         2.381775         2.801927         1.416669
