19
Iteration:   266
 C         4.566999        -0.312231         1.676172
 C         3.384649        -0.288822         0.799566
 C         2.111284        -1.195012         0.766170
 C         1.387662        -0.032036         0.023753
 C        -0.191890        -0.070248        -0.152296
 O         2.174077         0.010966        -1.172296
 C         3.360155         0.638198        -0.417431
 C         2.423094         0.996305         0.728196
 O         2.432667         2.118575         1.592201
 H         5.277434        -1.157219         1.537936
 H         5.084309         0.577346         1.680758
 H         4.188593        -0.345562         2.694182
 H         1.935823        -2.261919         0.311420
 H         1.831559        -1.293805         1.839619
 H        -0.734083        -0.236411         0.800940
 H        -0.459015         0.922049        -0.482131
 H        -0.508169        -0.803554        -0.903183
 H         4.156031         1.065231        -1.029573
 H         1.885140         1.891281         2.225813
