19
Iteration:  1259charge 0 multiplicity 1
 C         4.514530        -0.412624         1.752638
 C         3.320065        -0.226303         0.881870
 C         2.177032        -1.179704         0.584869
 C         1.450272        -0.049884        -0.070491
 C        -0.052414        -0.070477         0.017919
 O         2.170750         0.155424        -1.267622
 C         3.274515         0.630017        -0.383574
 C         2.385050         0.953612         0.819229
 O         2.334361         2.019656         1.645075
 H         4.802694        -1.423919         1.594902
 H         5.424930         0.073083         1.223974
 H         4.296155        -0.074819         2.807396
 H         2.449439        -1.968901        -0.121486
 H         1.745138        -1.520722         1.486772
 H        -0.530669        -0.292109         1.010056
 H        -0.330483         0.831424        -0.455635
 H        -0.321999        -0.734693        -0.780304
 H         4.179230         0.963116        -0.843242
 H         2.233567         2.872633         1.302244
