19
Iteration:  4256charge 0 multiplicity 1
 C         4.640520        -0.375991         1.646528
 C         3.349043        -0.222875         0.893227
 C         2.122145        -1.233756         0.726628
 C         1.399661        -0.051510         0.078438
 C        -0.031289        -0.059046        -0.138677
 O         2.188229         0.056420        -1.157731
 C         3.269696         0.623053        -0.349375
 C         2.382296         0.911710         0.820367
 O         2.313248         2.146250         1.533784
 H         5.170606        -1.236541         1.113464
 H         5.221973         0.453509         1.459763
 H         4.671267        -0.437255         2.747718
 H         2.163429        -2.073879        -0.018849
 H         1.679737        -1.492817         1.683194
 H        -0.500959        -0.306808         0.800010
 H        -0.483089         0.878987        -0.429481
 H        -0.364850        -0.737425        -0.923792
 H         4.041176         1.178480        -0.914186
 H         1.655433         2.693061         0.839190
