19
Iteration:  1209charge 0 multiplicity 1
 C         4.639190        -0.504588         1.734091
 C         3.389849        -0.229429         0.902579
 C         2.202372        -1.221036         0.701828
 C         1.429728         0.010226         0.083641
 C        -0.029075        -0.014294        -0.178994
 O         2.085949         0.219158        -1.217549
 C         3.216801         0.588951        -0.436367
 C         2.409755         0.944154         0.812683
 O         2.280636         1.995394         1.601188
 H         5.251550        -1.408549         1.527214
 H         5.304934         0.285018         1.531075
 H         4.142512        -0.292768         2.668646
 H         2.483971        -2.002901        -0.053424
 H         1.794694        -1.597601         1.666058
 H        -0.346463        -0.132304         0.853955
 H        -0.425393         0.935129        -0.626819
 H        -0.382772        -0.866279        -0.813682
 H         4.048267         1.134431        -0.905253
 H         2.016670         2.886269         1.076102
