19
Iteration:  4322
 C         4.467474        -0.307080         1.737060
 C         3.341123        -0.216041         0.770164
 C         2.224366        -1.271825         0.762063
 C         1.407718        -0.055030         0.055875
 C        -0.151742        -0.031220        -0.006440
 O         2.225584         0.076269        -1.234323
 C         3.311544         0.629620        -0.475149
 C         2.441040         0.970538         0.708569
 O         2.320530         2.029632         1.619437
 H         5.080088        -1.251989         1.419115
 H         5.163435         0.508225         1.598458
 H         4.153401        -0.314776         2.830332
 H         2.319820        -2.182486         0.085411
 H         2.051793        -1.655867         1.761135
 H        -0.517571        -0.225265         1.014652
 H        -0.649486         0.811667        -0.449959
 H        -0.322990        -0.808186        -0.759731
 H         4.107777         1.144036        -0.946976
 H         2.238907         2.912161         1.150206
