19
Iteration:  4471
 C         4.618316        -0.406302         1.748041
 C         3.344685        -0.269057         0.884247
 C         2.246504        -1.314245         0.684709
 C         1.415183        -0.043538         0.027412
 C        -0.078489        -0.065834        -0.066841
 O         2.123584         0.144242        -1.149088
 C         3.216683         0.650314        -0.410834
 C         2.433276         0.993784         0.795290
 O         2.281681         2.096964         1.493626
 H         5.119059        -1.319797         1.429328
 H         5.303772         0.475390         1.537508
 H         4.519071        -0.360069         2.828300
 H         2.610627        -2.070935         0.032187
 H         1.721774        -1.615832         1.592391
 H        -0.509591        -0.450034         0.854225
 H        -0.584374         0.923297        -0.297874
 H        -0.218692        -0.762966        -0.945124
 H         3.916184         1.220448        -1.022800
 H         2.140434         2.821770         1.029228
