19
Iteration:  1858charge 0 multiplicity 1
 C         4.595683        -0.241271         1.604750
 C         3.263502        -0.231396         0.893410
 C         2.161858        -1.216143         0.756363
 C         1.365200        -0.013843         0.006851
 C        -0.038117         0.033801        -0.151431
 O         2.192700         0.075546        -1.229185
 C         3.276013         0.573187        -0.430301
 C         2.414129         0.919730         0.792727
 O         2.339133         1.930954         1.724063
 H         5.092667        -1.195064         1.503016
 H         5.318488         0.542007         1.103920
 H         4.592495         0.035378         2.640048
 H         2.339588        -2.206507         0.201527
 H         1.532036        -1.328239         1.739393
 H        -0.503998        -0.238188         0.774546
 H        -0.572903         0.939041        -0.508886
 H        -0.281358        -0.721270        -0.896372
 H         4.274228         0.776535        -0.797591
 H         2.099393         2.659252         1.151327
