19
Iteration:  2695
 C         4.606038        -0.461197         1.607301
 C         3.353697        -0.165228         0.942272
 C         2.204200        -1.221698         0.898733
 C         1.429286        -0.104991         0.064831
 C        -0.056465         0.066814        -0.186216
 O         2.199878        -0.021767        -1.242894
 C         3.208522         0.675841        -0.440111
 C         2.463656         1.009190         0.744860
 O         2.232051         2.083364         1.597772
 H         5.293498        -0.991375         0.865264
 H         5.290407         0.327906         1.885546
 H         4.487675        -1.051586         2.610228
 H         2.374319        -2.029535         0.160964
 H         1.720611        -1.337215         1.890871
 H        -0.509448        -0.000251         0.783102
 H        -0.374239         0.985768        -0.686677
 H        -0.458200        -0.805889        -0.711900
 H         4.092899         1.039316        -0.855864
 H         1.525229         2.553123         1.293408
