19
Iteration:  4741
 C         4.634566        -0.265807         1.627307
 C         3.272795        -0.224687         0.956180
 C         2.167103        -1.219593         0.727988
 C         1.396249        -0.027697         0.020107
 C        -0.093253        -0.003174        -0.091856
 O         2.248239         0.051599        -1.211430
 C         3.178675         0.616535        -0.450102
 C         2.412875         0.915442         0.683001
 O         2.304461         1.939336         1.709937
 H         5.356796        -0.883286         1.083091
 H         5.166089         0.739942         1.388344
 H         4.444835        -0.463186         2.704697
 H         2.588952        -2.202018         0.255072
 H         1.728610        -1.553020         1.620206
 H        -0.508618         0.106649         0.868330
 H        -0.229692         0.842655        -0.792062
 H        -0.386518        -0.953758        -0.511412
 H         3.943042         1.336480        -0.951735
 H         2.281214         2.933335         1.185725
