19
Iteration:  3092charge 0 multiplicity 1
 C         4.573161        -0.466481         1.776672
 C         3.374011        -0.156375         0.891535
 C         2.242782        -1.170800         0.710531
 C         1.398664        -0.072794         0.035460
 C        -0.085331        -0.061781        -0.005585
 O         2.147968         0.066730        -1.299208
 C         3.270393         0.589804        -0.443560
 C         2.379518         0.994493         0.720787
 O         2.320022         2.136306         1.572006
 H         5.259403        -1.261418         1.249535
 H         5.267086         0.329706         1.795283
 H         4.092500        -0.852308         2.756098
 H         2.519440        -2.100777         0.183677
 H         1.782541        -1.446573         1.722144
 H        -0.432048        -0.450504         0.946274
 H        -0.395799         0.934081        -0.245928
 H        -0.396160        -0.736656        -0.756588
 H         4.261908         1.066312        -0.832754
 H         1.575647         2.663305         1.074615
