19
Iteration:     1charge 0 multiplicity 1
 C         4.623568        -0.390490         1.675133
 C         3.344182        -0.245647         0.908164
 C         2.165403        -1.212937         0.798978
 C         1.414750        -0.068044         0.062480
 C        -0.069765         0.006543        -0.102578
 O         2.165902         0.049775        -1.186786
 C         3.237308         0.580279        -0.416647
 C         2.425339         0.966029         0.758977
 O         2.297323         2.162355         1.414115
 H         5.235115        -1.209153         1.278850
 H         5.221092         0.526252         1.621069
 H         4.439075        -0.600472         2.735513
 H         2.293060        -2.136945         0.225124
 H         1.727976        -1.428622         1.779054
 H        -0.571252        -0.081520         0.866090
 H        -0.361244         0.954952        -0.562343
 H        -0.419585        -0.809272        -0.744948
 H         4.082357         1.039292        -0.912718
 H         2.111456         1.988551         2.344271
