19
Iteration:  2902
 C         4.684314        -0.369097         1.681884
 C         3.351279        -0.312494         0.938884
 C         2.213313        -1.285087         0.725339
 C         1.390590        -0.115326         0.038147
 C        -0.068913         0.027438        -0.107846
 O         2.149231         0.149038        -1.157647
 C         3.213780         0.614497        -0.322409
 C         2.374772         0.901489         0.852933
 O         2.295559         2.127395         1.428362
 H         5.342205        -0.998292         1.104972
 H         5.150147         0.701541         1.670441
 H         4.417042        -0.694643         2.737004
 H         2.400141        -1.984741        -0.103835
 H         1.744406        -1.859217         1.509427
 H        -0.457927        -0.009888         0.884473
 H        -0.232324         0.980586        -0.608891
 H        -0.559100        -0.777987        -0.675974
 H         4.103160         1.198990        -0.818533
 H         1.924305         2.743150         0.783378
