19
Iteration:  4574charge 0 multiplicity 1
 C         4.664428        -0.353125         1.613030
 C         3.314132        -0.175410         0.897134
 C         2.265216        -1.221243         0.719687
 C         1.430195        -0.084314         0.098397
 C        -0.074180         0.042069        -0.114806
 O         2.211216         0.026188        -1.205433
 C         3.191467         0.664475        -0.362484
 C         2.358064         0.944497         0.751333
 O         2.257109         1.986337         1.613526
 H         5.467995        -1.006857         1.054824
 H         5.143207         0.604534         1.516408
 H         4.554221        -0.803267         2.660564
 H         2.081395        -2.179314         0.099964
 H         1.685425        -1.380217         1.681263
 H        -0.605129         0.290276         0.834455
 H        -0.215559         0.753710        -0.914233
 H        -0.515843        -0.925945        -0.385063
 H         3.996563         1.177797        -0.800806
 H         1.983117         2.721378         0.992935
