19
Iteration:  1498
 C         4.630635        -0.327163         1.588798
 C         3.367173        -0.192078         0.895745
 C         2.232683        -1.234911         0.733298
 C         1.415212        -0.179355         0.054172
 C        -0.027484         0.167155        -0.240409
 O         2.159039         0.016000        -1.248625
 C         3.168742         0.575851        -0.388214
 C         2.394805         0.945107         0.805527
 O         2.271256         1.997197         1.745115
 H         4.954548        -1.273373         1.350874
 H         5.395216         0.489182         1.395386
 H         4.459566        -0.463646         2.620294
 H         2.413129        -2.251220         0.284464
 H         1.715308        -1.465574         1.746217
 H        -0.643958         0.394910         0.692521
 H         0.074675         1.139302        -0.757529
 H        -0.496110        -0.558169        -0.973084
 H         4.004546         1.210389        -0.764344
 H         1.915542         2.762533         1.569962
