19
Iteration:  2449
 C         4.550635        -0.377071         1.697662
 C         3.305707        -0.254283         0.929396
 C         2.182264        -1.221891         0.783875
 C         1.439069        -0.049735         0.000702
 C        -0.020631        -0.048206        -0.009360
 O         2.162890         0.129415        -1.283232
 C         3.247814         0.582447        -0.487756
 C         2.477412         0.970319         0.735250
 O         2.233522         2.082083         1.588066
 H         5.032929        -1.336302         1.635979
 H         5.312419         0.473374         1.486051
 H         4.440720        -0.300646         2.760726
 H         2.386040        -2.216970         0.206414
 H         1.612771        -1.541866         1.701608
 H        -0.413719        -0.480385         0.926057
 H        -0.429335         0.928003        -0.184518
 H        -0.321765        -0.619846        -0.850029
 H         4.195120         0.954802        -0.925284
 H         2.509098         2.799913         1.056619
