19
Iteration:  2502charge 0 multiplicity 1
 C         4.711925        -0.401720         1.599183
 C         3.271066        -0.174924         0.926519
 C         2.176528        -1.283966         0.789985
 C         1.417812        -0.128660         0.075734
 C        -0.029276         0.056521        -0.157035
 O         2.197325         0.008684        -1.200723
 C         3.192203         0.605891        -0.406061
 C         2.444373         1.016426         0.797644
 O         2.150191         2.120947         1.575812
 H         5.158275        -1.019424         0.836619
 H         5.226985         0.609961         1.882412
 H         4.708832        -0.852914         2.551326
 H         2.324649        -2.207490         0.169646
 H         1.880644        -1.522812         1.837349
 H        -0.648540         0.230742         0.658202
 H         0.048568         0.986084        -0.682227
 H        -0.499888        -0.779269        -0.646712
 H         4.120207         0.773526        -0.967019
 H         2.752581         2.692717         1.342462
