19
Iteration:  1475charge 0 multiplicity 1
 C         4.638822        -0.323839         1.649915
 C         3.341613        -0.315022         0.882596
 C         2.161165        -1.291033         0.695250
 C         1.392261        -0.007834         0.070605
 C        -0.091602         0.083647        -0.256240
 O         2.135433         0.116936        -1.143713
 C         3.240617         0.651041        -0.413414
 C         2.447434         0.887873         0.796202
 O         2.298752         1.968094         1.691167
 H         5.082829        -1.275364         1.714820
 H         5.198837         0.449181         1.054325
 H         4.599899         0.015028         2.637309
 H         2.552607        -2.188253         0.189327
 H         1.912691        -1.663949         1.782896
 H        -0.711437         0.185259         0.707558
 H        -0.228321         1.021338        -0.834226
 H        -0.200629        -0.834065        -0.908613
 H         4.181313         1.001851        -0.932498
 H         1.956089         2.964492         1.230932
