19
Iteration:  1296charge 0 multiplicity 1
 C         4.621162        -0.436317         1.690852
 C         3.441041        -0.268953         0.796270
 C         2.188580        -1.232634         0.756048
 C         1.425562        -0.081191         0.058497
 C        -0.043343         0.085689        -0.151479
 O         2.130323         0.149893        -1.235690
 C         3.220768         0.705537        -0.441658
 C         2.427559         0.909665         0.824483
 O         2.262213         1.986906         1.668036
 H         5.231836        -1.385512         1.594317
 H         5.247020         0.364380         1.589363
 H         4.354408        -0.355395         2.755876
 H         2.206399        -2.315868         0.349118
 H         1.797929        -1.295655         1.823059
 H        -0.864847         0.095419         0.593775
 H        -0.088068         1.048330        -0.770984
 H        -0.324515        -0.758900        -0.863383
 H         4.062948         1.109245        -1.068075
 H         1.582301         2.383878         1.177783
