19
Iteration:  4825
 C         4.610071        -0.481096         1.615580
 C         3.353219        -0.186847         0.857811
 C         2.198801        -1.334797         0.725023
 C         1.416104        -0.041415         0.021725
 C        -0.055296        -0.105672        -0.022239
 O         2.209730         0.076463        -1.250469
 C         3.360108         0.697571        -0.411090
 C         2.347383         1.005588         0.713237
 O         2.158761         2.196298         1.645535
 H         5.138008        -1.444170         1.260779
 H         5.164269         0.410650         1.659129
 H         4.549747        -0.963137         2.632241
 H         2.519857        -2.268638         0.276748
 H         1.872519        -1.460763         1.798522
 H        -0.341801        -0.211276         1.063552
 H        -0.663329         0.849597        -0.347471
 H        -0.495873        -1.039837        -0.524507
 H         4.196435         1.364568        -0.774062
 H         2.254248         3.025562         1.120512
