19
Iteration:  1992charge 0 multiplicity 1
 C         4.668360        -0.411921         1.645475
 C         3.346580        -0.193751         0.888365
 C         2.230005        -1.210681         0.824473
 C         1.347854        -0.144723         0.045108
 C        -0.084384         0.022665        -0.263773
 O         2.107443         0.001650        -1.142692
 C         3.218995         0.640756        -0.447664
 C         2.386459         1.011488         0.786375
 O         2.346242         2.083166         1.667878
 H         5.213336        -1.132866         1.064076
 H         5.222910         0.482865         1.718037
 H         4.477031        -0.815130         2.717910
 H         2.368422        -2.086204         0.048985
 H         1.925304        -1.571691         1.834358
 H        -0.632076         0.133924         0.649249
 H        -0.060461         0.980299        -0.798365
 H        -0.294812        -0.809963        -0.881713
 H         4.009116         1.207263        -1.111366
 H         2.001498         2.944838         1.117273
