19
Iteration:   827
 C         4.648134        -0.344297         1.552562
 C         3.308964        -0.173701         0.813134
 C         2.079895        -1.140823         0.833467
 C         1.403182        -0.058408         0.100398
 C        -0.011205         0.032249        -0.279319
 O         2.164892         0.014039        -1.184883
 C         3.244823         0.602104        -0.447312
 C         2.475388         0.966757         0.769259
 O         2.242568         1.954179         1.767392
 H         5.093403        -1.279195         1.306588
 H         5.454519         0.360991         1.362690
 H         4.555857        -0.340551         2.612247
 H         2.231040        -2.105723         0.290484
 H         1.598119        -1.293730         1.889902
 H        -0.736003        -0.129904         0.604009
 H        -0.281988         0.950591        -0.793733
 H        -0.174673        -0.834668        -0.960930
 H         4.164785         0.996858        -0.827878
 H         2.638146         2.833156         1.587783
