19
Iteration:  2344
 C         4.666036        -0.350058         1.524119
 C         3.322626        -0.247457         0.934569
 C         2.091665        -1.163963         0.738253
 C         1.402065        -0.061578        -0.026627
 C        -0.041891         0.010071        -0.131785
 O         2.263462        -0.039932        -1.191022
 C         3.267114         0.596690        -0.329320
 C         2.348411         0.975422         0.784288
 O         2.251668         2.075794         1.677774
 H         5.410522        -0.832116         0.877162
 H         5.243322         0.482820         1.704206
 H         4.541468        -0.796589         2.574477
 H         2.079895        -2.071540         0.193110
 H         1.503188        -1.197534         1.634573
 H        -0.387933         0.213202         0.920339
 H        -0.337248         0.877804        -0.724777
 H        -0.458739        -0.982276        -0.414396
 H         4.096068         1.033120        -0.900071
 H         2.253616         2.843784         0.923509
