19
Iteration:  1459
 C         4.702538        -0.330532         1.697681
 C         3.348783        -0.294454         0.913457
 C         2.102086        -1.205141         0.709161
 C         1.411139        -0.032164         0.031451
 C        -0.096613        -0.025516        -0.166574
 O         2.161309         0.193555        -1.268290
 C         3.255339         0.577613        -0.411868
 C         2.445291         0.927079         0.811371
 O         2.303002         1.961351         1.692153
 H         5.098036        -1.466628         1.720471
 H         5.456547         0.352035         1.329325
 H         4.474079         0.104023         2.749405
 H         2.018288        -1.957428        -0.092941
 H         1.506904        -1.362729         1.553596
 H        -0.633059        -0.122945         0.760322
 H        -0.477453         0.881218        -0.680124
 H        -0.331919        -0.888278        -0.778037
 H         4.048010         1.124747        -0.846622
 H         2.250389         2.712009         0.984446
