19
Iteration:  1737
 C         4.582179        -0.402093         1.639611
 C         3.333614        -0.263206         0.900437
 C         2.138793        -1.242485         0.650266
 C         1.414387        -0.069981        -0.024032
 C        -0.025947        -0.016864         0.086856
 O         2.258278         0.177546        -1.209487
 C         3.302200         0.645590        -0.393030
 C         2.399978         0.912984         0.795095
 O         2.173778         2.039092         1.504660
 H         5.321347        -1.056833         1.120100
 H         5.093690         0.558721         2.049115
 H         4.367997        -0.858750         2.576571
 H         2.564881        -1.924332        -0.027007
 H         1.491210        -1.640693         1.479758
 H        -0.249421         0.067318         1.126958
 H        -0.448220         0.916061        -0.184291
 H        -0.556256        -0.785594        -0.428824
 H         4.347169         0.941436        -0.675277
 H         2.267798         2.809629         0.865138
