19
Iteration:   705charge 0 multiplicity 1
 C         4.538574        -0.497301         1.774502
 C         3.369258        -0.270051         0.854576
 C         2.161984        -1.147574         0.720642
 C         1.468130        -0.052363         0.096061
 C        -0.021338        -0.046843        -0.091845
 O         2.188219         0.130655        -1.203629
 C         3.199962         0.689112        -0.544092
 C         2.508721         0.985362         0.732764
 O         2.221776         2.031034         1.592273
 H         5.141993        -1.361466         1.434851
 H         5.192361         0.295939         1.799728
 H         4.321691        -0.668249         2.829149
 H         2.273361        -2.091271         0.235720
 H         1.735916        -1.245380         1.722646
 H        -0.479438        -0.081795         0.903990
 H        -0.497488         0.887951        -0.442055
 H        -0.363558        -0.939194        -0.612596
 H         3.969159         1.198795        -1.173169
 H         2.302044         2.755187         1.061964
