19
Iteration:  3117charge 0 multiplicity 1
 C         4.595398        -0.450828         1.769303
 C         3.369888        -0.338967         0.940785
 C         2.221628        -1.313072         0.671245
 C         1.428826        -0.090838         0.046568
 C        -0.051635         0.014684        -0.017739
 O         2.164230         0.137992        -1.149172
 C         3.178844         0.689713        -0.431170
 C         2.471347         0.974368         0.784685
 O         2.251707         2.157636         1.446100
 H         5.443026        -1.094346         1.228416
 H         5.190660         0.603534         1.663955
 H         4.299503        -0.874322         2.735789
 H         2.582831        -2.137963        -0.073740
 H         1.615638        -1.786195         1.485146
 H        -0.460201         0.016185         0.989456
 H        -0.294847         0.932840        -0.624541
 H        -0.389565        -0.840934        -0.534745
 H         3.947857         1.165726        -0.952715
 H         1.697831         2.728598         0.664768
