19
Iteration:  1176
 C         4.661379        -0.468290         1.535908
 C         3.339223        -0.196274         0.870912
 C         2.154731        -1.204507         0.788770
 C         1.397218        -0.082974         0.042292
 C        -0.088814         0.070090        -0.211894
 O         2.246276         0.051272        -1.204689
 C         3.244060         0.643565        -0.399058
 C         2.415487         0.995488         0.838021
 O         2.263264         2.036989         1.662911
 H         5.423466        -1.192646         1.176578
 H         4.993413         0.467214         1.814427
 H         4.433873        -0.875319         2.540582
 H         2.291700        -2.158972         0.212368
 H         1.777593        -1.511505         1.765295
 H        -0.506622         0.021590         0.795407
 H        -0.281400         1.106948        -0.563984
 H        -0.608056        -0.677447        -0.838330
 H         4.160179         1.054719        -0.787372
 H         1.547314         2.528513         1.466185
