19
Iteration:  1059charge 0 multiplicity 1
 C         4.528175        -0.428347         1.821772
 C         3.340921        -0.240305         0.844258
 C         2.172048        -1.200571         0.606013
 C         1.422360         0.039775         0.040927
 C        -0.052727        -0.110026        -0.030709
 O         2.173989         0.195432        -1.227488
 C         3.243628         0.604723        -0.492680
 C         2.460576         0.957005         0.736893
 O         2.354786         2.027202         1.622275
 H         4.830192        -1.412567         1.594027
 H         5.346169         0.345119         1.553074
 H         4.293657        -0.404570         2.864484
 H         2.102107        -2.128603         0.036256
 H         1.792730        -1.486246         1.673734
 H        -0.326117        -0.339605         0.976380
 H        -0.489545         0.895995        -0.263817
 H        -0.369764        -0.929271        -0.707665
 H         4.129621         0.966271        -0.943617
 H         1.715999         2.730454         1.072101
