19
Iteration:  3363charge 0 multiplicity 1
 C         4.625990        -0.336956         1.560440
 C         3.276204        -0.301037         0.905983
 C         2.133656        -1.305136         0.822443
 C         1.456979        -0.164570         0.057069
 C        -0.065292         0.039279        -0.124200
 O         2.233420         0.076599        -1.285577
 C         3.290216         0.615245        -0.381280
 C         2.439649         0.956991         0.833853
 O         2.235375         2.142876         1.623907
 H         5.124221        -1.130057         1.042387
 H         5.127183         0.713228         1.323164
 H         4.762528        -0.420480         2.712442
 H         2.344845        -2.098967         0.078827
 H         1.523797        -1.545614         1.710562
 H        -0.372409         0.461105         0.800182
 H        -0.136336         0.849887        -0.772832
 H        -0.624171        -0.817504        -0.472024
 H         4.290352         0.920286        -0.635840
 H         1.431638         2.766540         1.202647
