19
Iteration:  4531charge 0 multiplicity 1
 C         4.623560        -0.237817         1.677623
 C         3.357837        -0.259274         0.848959
 C         2.148921        -1.145319         0.761939
 C         1.402906        -0.037414         0.072870
 C        -0.061412         0.002529        -0.088197
 O         2.175891         0.093566        -1.234152
 C         3.267770         0.578306        -0.489874
 C         2.426326         0.918919         0.741848
 O         2.292159         1.931810         1.659758
 H         5.404874        -0.932756         1.264957
 H         5.229341         0.626679         1.483138
 H         4.408350        -0.500278         2.753201
 H         2.267542        -2.242279         0.422908
 H         1.744106        -1.415950         1.753925
 H        -0.744850        -0.082162         0.774295
 H        -0.303646         0.806490        -0.769040
 H        -0.311757        -0.852662        -0.704032
 H         4.118752         0.907650        -1.048645
 H         1.569415         2.697850         1.450610
