19
Iteration:  4183
 C         4.717778        -0.415779         1.718509
 C         3.344125        -0.272490         0.887328
 C         2.178233        -1.171165         0.729517
 C         1.408560        -0.069246         0.096883
 C        -0.028469         0.018216        -0.062379
 O         2.204596         0.039429        -1.228775
 C         3.214959         0.630234        -0.525285
 C         2.447715         0.913045         0.734206
 O         2.124122         2.080555         1.617933
 H         5.437931        -1.042265         1.218419
 H         5.394968         0.666842         1.888128
 H         4.506077        -0.693558         2.748642
 H         2.101824        -2.111630         0.126176
 H         1.969352        -1.414367         1.791433
 H        -0.558968         0.327838         0.909306
 H        -0.208209         0.888824        -0.757049
 H        -0.651867        -0.774354        -0.606183
 H         4.113611         0.918945        -0.951252
 H         2.094978         2.974251         0.953423
