19
Iteration:  3247charge 0 multiplicity 1
 C         4.565043        -0.376317         1.650843
 C         3.296858        -0.212060         0.955113
 C         2.245586        -1.279858         0.704883
 C         1.426960        -0.124395         0.045925
 C        -0.051849        -0.045380        -0.098326
 O         2.159984         0.158787        -1.187637
 C         3.244045         0.534975        -0.374828
 C         2.404817         0.969063         0.800728
 O         2.354479         2.157530         1.503404
 H         5.098766        -1.314089         1.214927
 H         5.132306         0.508063         1.571184
 H         4.394945        -0.379273         2.724194
 H         2.572937        -2.110294         0.014629
 H         1.605342        -1.645695         1.544450
 H        -0.531841        -0.418521         0.850305
 H        -0.335577         1.081625        -0.149465
 H        -0.504619        -0.584568        -0.938231
 H         4.129611         0.899377        -0.847439
 H         1.493997         2.574865         1.243623
