19
Iteration:  3062
 C         4.571353        -0.371252         1.707545
 C         3.380077        -0.245508         0.819037
 C         2.089448        -1.147174         0.859275
 C         1.372510        -0.045375         0.076361
 C        -0.043744        -0.103950        -0.116556
 O         2.163902         0.041326        -1.250690
 C         3.267288         0.694251        -0.563855
 C         2.490277         1.024560         0.720318
 O         2.282913         1.991553         1.667108
 H         5.257047        -1.289290         1.426498
 H         5.329101         0.552248         1.617774
 H         4.490085        -0.383693         2.802631
 H         2.026757        -2.249270         0.531659
 H         1.608358        -1.204306         1.875401
 H        -0.458179        -0.662164         0.751641
 H        -0.437966         0.956071        -0.264293
 H        -0.210979        -0.670549        -1.011392
 H         4.225797         1.091143        -1.026627
 H         2.350299         2.924631         1.098452
