19
Iteration:  4498charge 0 multiplicity 1
 C         4.588673        -0.340820         1.731416
 C         3.335891        -0.181527         0.805740
 C         2.226076        -1.249575         0.731235
 C         1.398681        -0.126442         0.053419
 C        -0.088391        -0.058353        -0.074259
 O         2.191013         0.072388        -1.273551
 C         3.221713         0.641393        -0.486839
 C         2.376402         0.992527         0.809388
 O         2.306985         2.036870         1.653743
 H         5.196737        -1.262631         1.532331
 H         5.114630         0.553772         1.518580
 H         4.474949        -0.308907         2.873005
 H         2.522841        -2.158970         0.115785
 H         1.694898        -1.203213         1.677367
 H        -0.643265        -0.276820         0.867239
 H        -0.208301         0.975221        -0.285675
 H        -0.460964        -0.705211        -0.847105
 H         4.060209         0.976124        -1.108017
 H         2.428389         2.792474         1.223274
