19
Iteration:   353
 C         4.664898        -0.594798         1.713963
 C         3.350792        -0.194607         1.009647
 C         2.191181        -1.225739         0.807627
 C         1.501803        -0.067245         0.012242
 C         0.051383         0.082477         0.007654
 O         2.223140         0.145098        -1.225841
 C         3.199099         0.639374        -0.463283
 C         2.475313         0.976986         0.730576
 O         1.962197         2.085232         1.367211
 H         5.093122        -1.418814         1.068413
 H         5.431983         0.121400         1.871037
 H         4.374555        -1.068351         2.669565
 H         2.370982        -2.206769         0.199221
 H         1.540182        -1.443845         1.670540
 H        -0.154361         0.144800         1.093235
 H        -0.158485         1.060622        -0.400325
 H        -0.591601        -0.640125        -0.484402
 H         4.010722         0.905950        -1.123763
 H         2.752446         2.729118         1.835097
