19
Iteration:  3700
 C         4.736778        -0.359110         1.622652
 C         3.312372        -0.266043         0.988942
 C         2.213130        -1.304752         0.782204
 C         1.363001        -0.192031         0.123848
 C        -0.154439         0.056686        -0.221607
 O         2.147450         0.085110        -1.161138
 C         3.199295         0.620230        -0.417701
 C         2.414737         0.975335         0.846107
 O         2.320429         2.141835         1.550151
 H         5.387963        -1.043245         1.084851
 H         5.362049         0.652846         1.439114
 H         4.863318        -0.606220         2.661265
 H         2.490824        -2.081946         0.077657
 H         1.693997        -1.638054         1.624543
 H        -0.875328        -0.208738         0.544436
 H        -0.236960         0.993238        -0.759824
 H        -0.619602        -0.693412        -0.978185
 H         4.039795         1.038470        -0.859623
 H         2.244402         2.851154         0.753346
