19
Iteration:   734
 C         4.540160        -0.537306         1.826811
 C         3.367199        -0.275829         0.860511
 C         2.251868        -1.204350         0.667186
 C         1.470569        -0.063976         0.019374
 C        -0.042935         0.014930         0.090654
 O         2.162807         0.236884        -1.302172
 C         3.290898         0.565216        -0.394770
 C         2.398728         0.950695         0.698969
 O         2.225643         2.111085         1.467071
 H         5.295607        -1.220214         1.358873
 H         5.155647         0.386925         2.102271
 H         4.260728        -0.930056         2.827520
 H         2.623364        -2.222261         0.200706
 H         1.769332        -1.384875         1.605968
 H        -0.418085        -0.141613         1.094156
 H        -0.534601         0.950553        -0.287130
 H        -0.441739        -0.843548        -0.489134
 H         4.057003         1.146430        -0.925905
 H         1.560716         2.566119         1.129940
