19
Iteration:   793charge 0 multiplicity 1
 C         4.698510        -0.350612         1.629634
 C         3.429031        -0.264122         0.887535
 C         2.126387        -1.207022         0.825137
 C         1.382310        -0.117342        -0.005966
 C        -0.076811         0.110313        -0.197030
 O         2.134997         0.121211        -1.214361
 C         3.270563         0.608223        -0.413028
 C         2.455627         0.901007         0.811054
 O         2.171362         1.978771         1.626832
 H         5.270930        -1.135590         1.134142
 H         5.218288         0.550928         1.658149
 H         4.468139        -0.709559         2.624618
 H         2.431963        -2.231343         0.472875
 H         1.632001        -1.304077         1.860066
 H        -0.576381         0.023378         0.813983
 H        -0.259446         1.102820        -0.636260
 H        -0.454788        -0.683210        -0.871089
 H         4.233052         0.938713        -0.795356
 H         2.558482         2.938389         1.183706
