19
Iteration:  2696charge 0 multiplicity 1
 C         4.611699        -0.469467         1.610253
 C         3.356090        -0.154361         0.942935
 C         2.207239        -1.220257         0.899916
 C         1.420651        -0.098631         0.067515
 C        -0.058321         0.065340        -0.178939
 O         2.198672        -0.018604        -1.246512
 C         3.215831         0.670578        -0.441284
 C         2.469128         1.003668         0.745838
 O         2.227933         2.078228         1.595967
 H         5.288818        -0.981772         0.883336
 H         5.232070         0.332277         1.849771
 H         4.457799        -1.083394         2.574677
 H         2.366257        -2.005841         0.201748
 H         1.738268        -1.314734         1.857298
 H        -0.497044         0.014580         0.807482
 H        -0.366842         0.972113        -0.701499
 H        -0.451655        -0.827908        -0.740966
 H         4.132667         1.049883        -0.850704
 H         1.467479         2.588541         1.266328
