19
Iteration:  1461
 C         4.692508        -0.321054         1.694484
 C         3.351759        -0.312655         0.923960
 C         2.125625        -1.216727         0.693355
 C         1.408222        -0.018381         0.039462
 C        -0.091221        -0.000105        -0.174934
 O         2.149482         0.174889        -1.258273
 C         3.245863         0.586218        -0.403596
 C         2.463777         0.938322         0.817466
 O         2.298910         1.959342         1.676503
 H         5.155573        -1.417568         1.708487
 H         5.466432         0.312092         1.298694
 H         4.489199         0.092958         2.695114
 H         2.036562        -1.995133        -0.045418
 H         1.476277        -1.370640         1.577964
 H        -0.723194        -0.149646         0.730591
 H        -0.488258         0.877762        -0.760152
 H        -0.352901        -0.899476        -0.791388
 H         4.044372         1.156918        -0.824240
 H         2.225160         2.635381         1.133879
