19
Iteration:  2930charge 0 multiplicity 1
 C         4.575261        -0.504981         1.732546
 C         3.359329        -0.239640         0.898379
 C         2.252690        -1.225009         0.725057
 C         1.405884        -0.073096         0.009356
 C        -0.073233        -0.012046         0.061174
 O         2.254564         0.077259        -1.256872
 C         3.271946         0.646004        -0.418992
 C         2.434659         0.992756         0.730876
 O         2.140124         2.146654         1.502927
 H         5.373322        -0.961535         1.091861
 H         5.134857         0.392185         2.008833
 H         4.260058        -1.046045         2.585964
 H         2.342543        -1.994811        -0.070600
 H         1.793203        -1.632947         1.669163
 H        -0.341877         0.083018         1.174191
 H        -0.455561         0.827875        -0.614733
 H        -0.609399        -0.944518        -0.201524
 H         4.080852         1.052902        -0.944307
 H         2.246194         2.896536         0.991727
