19
Iteration:  2874
 C         4.682243        -0.296926         1.635268
 C         3.345496        -0.277419         0.876459
 C         2.156261        -1.220524         0.849027
 C         1.411058        -0.081808         0.085849
 C        -0.118197        -0.010454        -0.194590
 O         2.142839         0.104937        -1.211565
 C         3.263803         0.584420        -0.443576
 C         2.438360         0.956619         0.814714
 O         2.299771         2.044707         1.622228
 H         5.099889        -1.301894         1.248246
 H         5.203374         0.621339         1.370970
 H         4.431919        -0.348985         2.675549
 H         2.256896        -2.192295         0.288987
 H         1.624989        -1.604683         1.762086
 H        -0.830082        -0.350067         0.629849
 H        -0.315802         1.031038        -0.570497
 H        -0.137826        -0.668897        -1.093960
 H         4.129814         0.984962        -0.881046
 H         2.166466         2.847857         1.020789
