19
Iteration:  4326charge 0 multiplicity 1
 C         4.489739        -0.301904         1.713600
 C         3.335081        -0.234163         0.793789
 C         2.192067        -1.258328         0.736866
 C         1.389215        -0.101856         0.037656
 C        -0.136681        -0.018129        -0.007844
 O         2.235123         0.091989        -1.216734
 C         3.305813         0.612003        -0.436695
 C         2.449979         0.947435         0.689800
 O         2.324351         2.043515         1.630553
 H         4.986649        -1.158883         1.410198
 H         5.224625         0.647139         1.697882
 H         4.183827        -0.254435         2.723666
 H         2.414058        -2.135744         0.108559
 H         2.092863        -1.603692         1.784780
 H        -0.467876        -0.139254         1.094494
 H        -0.706494         0.824634        -0.527745
 H        -0.331521        -0.806606        -0.806631
 H         4.069256         1.089858        -1.111149
 H         2.142059         2.885259         1.170479
