19
Iteration:  2675
 C         4.678823        -0.373132         1.625559
 C         3.326488        -0.193347         0.936994
 C         2.158658        -1.263584         0.760479
 C         1.365979        -0.123906         0.040020
 C        -0.034554         0.031436        -0.191626
 O         2.178945        -0.000724        -1.165112
 C         3.231815         0.602953        -0.405017
 C         2.347675         0.953078         0.779533
 O         2.327083         2.113617         1.625556
 H         5.363593        -1.074309         1.146935
 H         5.116928         0.520846         1.453751
 H         4.504616        -0.534524         2.714489
 H         2.349192        -2.110034         0.173346
 H         1.685028        -1.238479         1.703872
 H        -0.597538         0.006845         0.741712
 H        -0.055720         1.024283        -0.663370
 H        -0.373255        -0.662518        -1.036299
 H         4.033369         1.112968        -0.922005
 H         1.837719         2.799865         1.268340
