19
Iteration:   895
 C         4.519463        -0.488864         1.753618
 C         3.372338        -0.247769         0.859028
 C         2.221100        -1.303914         0.663490
 C         1.445681        -0.085072         0.066875
 C        -0.035296        -0.021192        -0.006892
 O         2.122917         0.222368        -1.271237
 C         3.254827         0.599620        -0.388485
 C         2.516315         0.988370         0.725867
 O         2.270823         2.124245         1.550976
 H         5.130081        -1.307107         1.505499
 H         5.171263         0.416214         2.016036
 H         4.039719        -0.758915         2.667599
 H         2.363947        -2.132578        -0.053554
 H         1.779464        -1.795437         1.621520
 H        -0.459252        -0.115583         1.013272
 H        -0.439336         0.951616        -0.395298
 H        -0.390041        -0.909502        -0.622993
 H         4.104318         1.242874        -0.757895
 H         1.730032         2.835138         0.934995
