19
Iteration:  1570charge 0 multiplicity 1
 C         4.615234        -0.475509         1.744029
 C         3.304293        -0.231177         0.944230
 C         2.183301        -1.265876         0.619437
 C         1.408772        -0.114492        -0.012085
 C        -0.097375        -0.049887         0.011441
 O         2.179639         0.153542        -1.234529
 C         3.258600         0.705608        -0.406429
 C         2.470509         0.992790         0.772818
 O         2.290049         2.103703         1.540712
 H         5.398469        -1.088630         1.098130
 H         4.876558         0.426895         2.301855
 H         4.443482        -1.266228         2.524100
 H         2.445509        -2.167531         0.040538
 H         1.659397        -1.636363         1.519911
 H        -0.519060         0.031599         1.006739
 H        -0.339207         0.940195        -0.356386
 H        -0.441352        -0.853628        -0.629806
 H         4.158479         1.257702        -0.818693
 H         1.942842         2.768036         0.823758
