19
Iteration:  1760charge 0 multiplicity 1
 C         4.564067        -0.547319         1.684243
 C         3.314456        -0.234997         0.979672
 C         2.229908        -1.237808         0.633017
 C         1.358665        -0.052180         0.006035
 C        -0.066654        -0.065417         0.081942
 O         2.258272         0.137743        -1.308918
 C         3.314429         0.627658        -0.419535
 C         2.403319         1.010593         0.752108
 O         2.228213         2.137864         1.561278
 H         5.335332        -0.911214         1.018792
 H         4.891280         0.445826         2.189909
 H         4.510773        -1.147269         2.590218
 H         2.500066        -2.073045         0.012444
 H         1.746434        -1.467981         1.586195
 H        -0.340183        -0.079958         1.100137
 H        -0.650636         0.791562        -0.220424
 H        -0.403746        -0.920945        -0.478855
 H         4.113912         1.294183        -0.896211
 H         1.954884         2.915419         0.937499
