19
Iteration:  1430
 C         4.466665        -0.482787         1.681345
 C         3.285580        -0.238888         0.862238
 C         2.242734        -1.221544         0.711295
 C         1.465976        -0.046321        -0.034397
 C        -0.121120        -0.118380        -0.039021
 O         2.208364         0.180574        -1.259540
 C         3.281016         0.688199        -0.391552
 C         2.479237         1.022577         0.710574
 O         2.345774         2.032263         1.682728
 H         4.742837        -1.528190         1.642104
 H         5.132696         0.329244         1.447326
 H         4.180160        -0.367483         2.682441
 H         2.309011        -2.121176         0.117498
 H         1.536624        -1.337638         1.653495
 H        -0.380690        -0.332331         1.042910
 H        -0.664458         0.836588        -0.285536
 H        -0.269281        -0.962100        -0.771805
 H         4.114157         1.181621        -0.849778
 H         2.098873         2.925094         1.035242
