19
Iteration:  3445charge 0 multiplicity 1
 C         4.594241        -0.347659         1.736135
 C         3.310176        -0.228782         0.936517
 C         2.197792        -1.233760         0.696219
 C         1.377978        -0.125765         0.045052
 C        -0.080886        -0.023985         0.005366
 O         2.226924         0.114766        -1.267222
 C         3.250363         0.633142        -0.430465
 C         2.417531         0.944910         0.780950
 O         2.281775         2.066986         1.512397
 H         5.188717        -1.228906         1.327319
 H         5.281921         0.418399         1.563446
 H         4.381360        -0.596735         2.761660
 H         2.385424        -2.112787         0.115290
 H         1.660272        -1.519733         1.592791
 H        -0.655294        -0.440145         0.905223
 H        -0.494718         0.992410        -0.355702
 H        -0.433935        -0.738398        -0.821045
 H         4.088597         1.176549        -0.761005
 H         2.510814         2.984763         1.002649
