19
Iteration:  2038
 C         4.644088        -0.286697         1.682430
 C         3.368710        -0.309382         0.844241
 C         2.062471        -1.186981         0.781072
 C         1.436368        -0.069444         0.004342
 C        -0.069938        -0.035579        -0.143976
 O         2.151369         0.149481        -1.211243
 C         3.267288         0.557265        -0.479796
 C         2.480048         0.973898         0.761422
 O         2.313316         1.980371         1.642091
 H         5.268296        -1.213148         1.651957
 H         5.200275         0.539200         1.337295
 H         4.375028        -0.011362         2.760877
 H         1.997377        -2.280041         0.449176
 H         1.491259        -1.071313         1.716145
 H        -0.424281        -0.314310         0.897515
 H        -0.404079         0.984853        -0.274417
 H        -0.481971        -0.771948        -0.844761
 H         4.247307         0.744192        -0.895901
 H         1.890727         2.855456         1.399089
