19
Iteration:  1280
 C         4.627021        -0.424284         1.775774
 C         3.368481        -0.307811         0.865155
 C         2.225847        -1.261361         0.734073
 C         1.411131        -0.037193         0.067412
 C        -0.131485         0.032260        -0.170721
 O         2.131257         0.192522        -1.227024
 C         3.251475         0.656451        -0.509632
 C         2.489502         0.975983         0.756218
 O         2.283773         1.980987         1.648313
 H         4.994665        -1.422800         1.656223
 H         5.575879         0.197222         1.472092
 H         4.202262        -0.199892         2.775769
 H         2.378521        -2.024180        -0.013728
 H         1.834965        -1.684312         1.637152
 H        -0.419763        -0.136583         0.873819
 H        -0.453749         0.938258        -0.602733
 H        -0.503843        -0.785726        -0.752875
 H         4.097908         1.204264        -0.852353
 H         1.610505         2.789992         1.338563
