19
Iteration:  1729
 C         4.615215        -0.414029         1.660298
 C         3.327466        -0.287759         0.913442
 C         2.196073        -1.242635         0.626308
 C         1.423947        -0.067095        -0.003225
 C        -0.024703         0.047235         0.037980
 O         2.213372         0.169718        -1.237112
 C         3.294018         0.606896        -0.355357
 C         2.428032         0.889644         0.799669
 O         2.149360         2.058653         1.533770
 H         5.385083        -1.019785         1.269834
 H         4.936864         0.669011         1.717766
 H         4.452973        -0.769055         2.739690
 H         2.319275        -2.164391         0.016545
 H         1.704893        -1.530199         1.520401
 H        -0.283227        -0.037336         1.110107
 H        -0.395625         1.062038        -0.335643
 H        -0.511082        -0.852764        -0.402431
 H         4.079347         1.152079        -0.954181
 H         2.243575         2.708689         0.911619
