19
Iteration:  1351
 C         4.699284        -0.358585         1.566793
 C         3.299713        -0.316553         0.930680
 C         2.049080        -1.225115         0.737605
 C         1.424806        -0.026902        -0.044049
 C        -0.080242         0.061389        -0.129305
 O         2.281496         0.079187        -1.237897
 C         3.285502         0.564851        -0.303534
 C         2.444764         0.978063         0.834784
 O         2.181892         2.027645         1.665070
 H         5.428841        -0.670041         0.762769
 H         5.039961         0.580885         1.793957
 H         4.748645        -0.994312         2.431471
 H         2.120711        -2.063108        -0.007065
 H         1.597163        -1.638133         1.655311
 H        -0.329458        -0.020092         0.931328
 H        -0.359084         1.066071        -0.576913
 H        -0.631481        -0.729954        -0.721130
 H         4.023404         1.165494        -0.860205
 H         2.329822         2.724210         1.138948
