19
Iteration:  1787charge 0 multiplicity 1
 C         4.600265        -0.506131         1.719209
 C         3.419421        -0.215350         0.861316
 C         2.229846        -1.248582         0.717275
 C         1.383306        -0.075184         0.126434
 C        -0.041571        -0.067427        -0.127309
 O         2.095323         0.160172        -1.191443
 C         3.252051         0.712343        -0.433304
 C         2.446803         1.004098         0.767060
 O         2.282024         2.084925         1.548973
 H         5.385668        -1.056117         1.124982
 H         5.077143         0.285052         2.215976
 H         4.206620        -1.164102         2.584215
 H         2.153512        -2.275167         0.176174
 H         2.000823        -1.324254         1.802110
 H        -0.656420        -0.103240         0.859885
 H        -0.450969         0.795408        -0.765819
 H        -0.272261        -0.928008        -0.836432
 H         4.055422         1.093608        -0.997871
 H         1.842198         2.777510         1.041404
