19
Iteration:  3555
 C         4.623908        -0.366108         1.595708
 C         3.357339        -0.260819         0.958529
 C         2.131923        -1.252061         0.852597
 C         1.421418         0.025919         0.034841
 C        -0.054608        -0.009417        -0.122993
 O         2.195017         0.119963        -1.164922
 C         3.269943         0.640577        -0.467158
 C         2.521633         0.956082         0.748263
 O         2.203673         1.983967         1.573727
 H         5.109285        -1.288157         1.079322
 H         5.205341         0.545822         1.347647
 H         4.719322        -0.343059         2.677836
 H         2.134886        -2.196770         0.381508
 H         1.624778        -1.323181         1.788842
 H        -0.513608         0.145018         0.935747
 H        -0.232902         0.818021        -0.875847
 H        -0.472929        -1.010838        -0.514594
 H         4.186291         0.799997        -1.146340
 H         1.463729         2.640699         1.084719
