19
Iteration:  1954charge 0 multiplicity 1
 C         4.625949        -0.435247         1.650150
 C         3.357068        -0.289219         0.927429
 C         2.077389        -1.189186         0.760579
 C         1.462417        -0.022349         0.031844
 C        -0.063006        -0.066088        -0.015567
 O         2.200061         0.209742        -1.197915
 C         3.352869         0.589668        -0.339736
 C         2.398966         0.918068         0.753014
 O         2.218217         2.062630         1.463018
 H         5.371048        -0.850117         0.915846
 H         5.128889         0.583212         1.766603
 H         4.681155        -0.942770         2.561546
 H         2.166044        -1.974624         0.046623
 H         1.537058        -1.526699         1.663498
 H        -0.449656        -0.021698         1.042108
 H        -0.658390         0.585697        -0.636580
 H        -0.549808        -0.963076        -0.499257
 H         4.170433         1.079304        -0.792828
 H         2.230301         2.867726         0.971303
