19
Iteration:  4826charge 0 multiplicity 1
 C         4.613957        -0.472591         1.609748
 C         3.343471        -0.189363         0.858401
 C         2.189376        -1.335734         0.731343
 C         1.418809        -0.037268         0.022772
 C        -0.048928        -0.103756        -0.020890
 O         2.208702         0.074220        -1.245671
 C         3.359653         0.698754        -0.404259
 C         2.345540         1.000243         0.705233
 O         2.161479         2.198417         1.641850
 H         5.148549        -1.423233         1.271145
 H         5.205360         0.406441         1.661128
 H         4.530007        -0.957384         2.615798
 H         2.507805        -2.274154         0.248696
 H         1.885431        -1.473448         1.761290
 H        -0.353649        -0.254528         1.031055
 H        -0.646567         0.850931        -0.348198
 H        -0.488547        -1.032223        -0.525718
 H         4.220736         1.376229        -0.766419
 H         2.259552         2.963036         1.171602
