19
Iteration:  3895charge 0 multiplicity 1
 C         4.622016        -0.423083         1.612335
 C         3.392134        -0.165392         0.901577
 C         2.172298        -1.162543         0.858738
 C         1.351579        -0.081753         0.080102
 C        -0.126371        -0.037390        -0.168896
 O         2.160952         0.033736        -1.182918
 C         3.270166         0.656829        -0.483009
 C         2.509717         0.996306         0.768714
 O         2.264607         2.070554         1.621522
 H         5.272976        -1.181305         1.251665
 H         5.174100         0.501220         1.547601
 H         4.399321        -0.658901         2.613584
 H         2.207139        -2.121969         0.202879
 H         2.043125        -1.525665         1.886299
 H        -0.963488        -0.354838         0.519714
 H        -0.427864         0.883059        -0.694697
 H        -0.112185        -0.826085        -0.921746
 H         4.323041         0.801953        -0.936550
 H         1.835030         2.682853         1.177242
