19
Iteration:  2067
 C         4.571456        -0.362428         1.755593
 C         3.328534        -0.243881         0.888640
 C         2.208479        -1.272130         0.698079
 C         1.417855        -0.033351         0.071291
 C        -0.085927         0.019573        -0.044965
 O         2.156933         0.122194        -1.232139
 C         3.250418         0.592997        -0.463959
 C         2.445687         0.945202         0.736859
 O         2.283488         1.992780         1.523972
 H         5.151856        -1.225299         1.629499
 H         5.212701         0.462859         1.341665
 H         4.342844        -0.119742         2.801997
 H         2.373865        -2.211603         0.138067
 H         1.781868        -1.508648         1.687940
 H        -0.328259        -0.175872         0.968578
 H        -0.469096         1.034738        -0.259061
 H        -0.483584        -0.708827        -0.725924
 H         4.251220         1.086048        -0.756550
 H         2.337680         3.029505         1.291874
