19
Iteration:  4152charge 0 multiplicity 1
 C         4.519792        -0.357959         1.713505
 C         3.294706        -0.266610         0.927062
 C         2.247077        -1.270378         0.715967
 C         1.414009        -0.069545        -0.011105
 C        -0.049833         0.003916         0.018512
 O         2.184832         0.138290        -1.242636
 C         3.268996         0.644885        -0.404357
 C         2.403094         0.893514         0.730435
 O         2.319058         2.079286         1.487811
 H         5.232300        -1.134098         1.418436
 H         5.029910         0.670533         1.520395
 H         4.304568        -0.522958         2.793594
 H         2.421268        -2.156499         0.062191
 H         1.964681        -1.724308         1.747055
 H        -0.299584         0.126192         1.121779
 H        -0.264738         0.969701        -0.466436
 H        -0.475593        -0.941406        -0.337791
 H         4.169576         1.041556        -0.704718
 H         1.541919         2.517990         1.126501
