19
Iteration:  4255charge 0 multiplicity 1
 C         4.645833        -0.369569         1.643826
 C         3.346728        -0.228908         0.902419
 C         2.119855        -1.237270         0.721428
 C         1.403911        -0.042726         0.083896
 C        -0.035665        -0.058837        -0.148932
 O         2.186108         0.049655        -1.158633
 C         3.274443         0.623716        -0.352981
 C         2.377760         0.910776         0.819810
 O         2.309737         2.151543         1.539909
 H         5.180404        -1.233329         1.085450
 H         5.242439         0.441883         1.429648
 H         4.665108        -0.469979         2.778259
 H         2.144296        -2.100837         0.009319
 H         1.670345        -1.517993         1.692871
 H        -0.443124        -0.297336         0.797918
 H        -0.467813         0.892703        -0.415337
 H        -0.366883        -0.747761        -0.904764
 H         4.047499         1.208274        -0.938602
 H         1.662400         2.700359         0.830778
