19
Iteration:  1297
 C         4.621231        -0.435591         1.689701
 C         3.430598        -0.267971         0.798377
 C         2.193711        -1.228437         0.746444
 C         1.425877        -0.085720         0.069883
 C        -0.038259         0.091382        -0.157739
 O         2.131715         0.147673        -1.232607
 C         3.225206         0.699052        -0.448455
 C         2.417498         0.908804         0.830078
 O         2.265917         1.983452         1.673055
 H         5.244233        -1.371858         1.552891
 H         5.280289         0.384641         1.584940
 H         4.339220        -0.367196         2.733449
 H         2.186084        -2.310812         0.382839
 H         1.782725        -1.253857         1.832725
 H        -0.833976         0.080322         0.612582
 H        -0.071684         1.057383        -0.785121
 H        -0.326459        -0.762880        -0.860681
 H         4.061158         1.129754        -1.058677
 H         1.528097         2.397818         1.113600
