19
Iteration:  2383charge 0 multiplicity 1
 C         4.604842        -0.387478         1.728778
 C         3.374182        -0.201312         0.842662
 C         2.198002        -1.175497         0.803605
 C         1.468408        -0.046838         0.056025
 C        -0.027189        -0.015125        -0.105901
 O         2.068560         0.160542        -1.210976
 C         3.258973         0.553058        -0.450908
 C         2.450446         0.943921         0.771057
 O         2.254484         1.982058         1.547298
 H         4.962808        -1.370032         1.395074
 H         5.235777         0.602795         1.735449
 H         4.254808        -0.572793         2.726205
 H         2.451833        -2.195145         0.300619
 H         1.830439        -1.344681         1.861491
 H        -0.720147        -0.036105         0.769665
 H        -0.178447         0.928454        -0.670502
 H        -0.341962        -0.804840        -0.772329
 H         4.124248         0.967531        -1.073146
 H         2.136982         2.754540         1.094314
