19
Iteration:  2935charge 0 multiplicity 1
 C         4.577825        -0.512577         1.724444
 C         3.390135        -0.219330         0.864583
 C         2.201777        -1.210302         0.745344
 C         1.408499        -0.064276        -0.007891
 C        -0.037100        -0.033478         0.063022
 O         2.235858         0.067594        -1.253738
 C         3.269293         0.650037        -0.430983
 C         2.436343         1.005491         0.721147
 O         2.116834         2.129443         1.525432
 H         5.384162        -1.099273         1.279095
 H         5.133756         0.415225         2.126784
 H         4.377484        -1.150816         2.658450
 H         2.466816        -1.972003         0.004266
 H         1.670148        -1.574685         1.598462
 H        -0.215317         0.199207         1.108243
 H        -0.482327         0.805616        -0.484028
 H        -0.576720        -0.966403        -0.210540
 H         4.170891         1.056568        -1.017768
 H         2.320760         3.009552         0.920460
