19
Iteration:  4053
 C         4.702391        -0.360707         1.566925
 C         3.346657        -0.193661         0.990489
 C         2.091629        -1.299487         0.817040
 C         1.375364        -0.069751         0.099240
 C        -0.135923        -0.016233        -0.221510
 O         2.178895         0.088175        -1.151917
 C         3.304440         0.557744        -0.370236
 C         2.416813         1.040886         0.765235
 O         2.281218         2.064845         1.540714
 H         5.190582        -1.126577         1.021438
 H         5.175008         0.631487         1.415473
 H         4.758964        -0.607801         2.614538
 H         2.302503        -2.120910         0.072129
 H         1.959369        -1.491837         1.929321
 H        -0.595143        -0.295344         0.760368
 H        -0.267543         0.978242        -0.663462
 H        -0.263816        -0.844500        -0.962774
 H         4.278447         0.888903        -0.866460
 H         1.738762         2.894952         1.191111
