19
Iteration:  4250charge 0 multiplicity 1
 C         4.676548        -0.360183         1.630854
 C         3.332733        -0.268489         0.956816
 C         2.111545        -1.256743         0.709382
 C         1.426809        -0.014981         0.091913
 C        -0.057923        -0.044582        -0.190389
 O         2.180733         0.024815        -1.166143
 C         3.288582         0.626677        -0.387579
 C         2.371268         0.934876         0.821269
 O         2.277589         2.171643         1.556157
 H         5.170578        -1.143182         1.109582
 H         5.402779         0.532300         1.298351
 H         4.605720        -0.632114         2.694121
 H         2.114595        -2.204645         0.168814
 H         1.688113        -1.591497         1.683475
 H        -0.322748        -0.311207         0.902683
 H        -0.398496         1.006852        -0.384895
 H        -0.370047        -0.882802        -0.868743
 H         3.990871         1.239450        -0.904083
 H         1.849937         2.706984         0.970803
