19
Iteration:  4684charge 0 multiplicity 1
 C         4.624108        -0.316079         1.694760
 C         3.362341        -0.235061         0.895576
 C         2.220379        -1.259054         0.778535
 C         1.364705        -0.073992         0.086305
 C        -0.079460        -0.012382        -0.120387
 O         2.135564         0.083648        -1.236871
 C         3.210448         0.703305        -0.478101
 C         2.477879         0.974240         0.768751
 O         2.299425         2.001070         1.607381
 H         5.088279        -1.323669         1.353472
 H         5.218068         0.605037         1.548363
 H         4.700842        -0.612152         2.815030
 H         2.423768        -2.121081         0.058356
 H         2.035632        -1.505236         1.835370
 H        -0.719865        -0.440973         0.657697
 H        -0.464594         1.029134        -0.354937
 H        -0.254912        -0.576655        -1.059741
 H         4.135754         0.972838        -0.824845
 H         1.571253         2.507555         1.032283
