19
Iteration:  3919
 C         4.648538        -0.361713         1.660330
 C         3.377184        -0.271320         0.940314
 C         2.181484        -1.221362         0.739419
 C         1.412021        -0.085512        -0.015437
 C         0.023698        -0.009621        -0.146647
 O         2.088063         0.060539        -1.208635
 C         3.231911         0.573803        -0.343916
 C         2.355679         0.954855         0.766088
 O         2.312414         2.118532         1.571819
 H         5.192376        -1.170019         1.344688
 H         5.277838         0.537439         1.279709
 H         4.571642        -0.426142         2.691338
 H         2.329785        -2.254621         0.163891
 H         1.687921        -1.465663         1.687387
 H        -0.425733        -0.121349         0.831940
 H        -0.328292         0.962532        -0.504425
 H        -0.433378        -0.894908        -0.694068
 H         4.031033         1.247879        -0.588345
 H         1.781677         3.027163         1.266552
