19
Iteration:     4
 C         4.628018        -0.373601         1.696757
 C         3.336690        -0.225814         0.917877
 C         2.178955        -1.198739         0.785356
 C         1.407532        -0.042431         0.083049
 C        -0.062832        -0.005774        -0.090112
 O         2.159305         0.044421        -1.186192
 C         3.221116         0.573567        -0.425582
 C         2.448952         0.974154         0.737554
 O         2.297029         2.150976         1.398551
 H         5.216755        -1.261560         1.251213
 H         5.280696         0.488375         1.699943
 H         4.397283        -0.657028         2.762845
 H         2.226046        -2.200885         0.135951
 H         1.639414        -1.566550         1.695361
 H        -0.574888        -0.097120         0.858090
 H        -0.380323         0.940118        -0.565798
 H        -0.415707        -0.788442        -0.774054
 H         4.096032         1.013015        -0.874620
 H         2.171889         1.856716         2.435669
