19
Iteration:   186
 C         4.572211        -0.482571         1.721978
 C         3.367291        -0.266168         0.874182
 C         2.129507        -1.219934         0.674142
 C         1.414241        -0.006992         0.149928
 C        -0.049562        -0.001298        -0.035616
 O         2.218461         0.036195        -1.164639
 C         3.302743         0.625233        -0.371043
 C         2.413269         0.995225         0.731254
 O         2.253162         2.197397         1.359684
 H         5.279372        -1.195242         1.313367
 H         5.180409         0.446852         1.821253
 H         4.284317        -0.872599         2.699865
 H         2.318138        -1.937757        -0.273403
 H         1.764194        -1.619650         1.662987
 H        -0.526878        -0.226165         0.918244
 H        -0.451185         0.939462        -0.470173
 H        -0.295153        -0.878590        -0.655618
 H         4.043755         1.246197        -0.907158
 H         1.921561         1.907409         2.314304
