19
Iteration:  1560
 C         4.607192        -0.460975         1.743727
 C         3.319471        -0.296732         0.886485
 C         2.145857        -1.280877         0.686549
 C         1.452935        -0.016464        -0.022797
 C        -0.020437        -0.018280        -0.028907
 O         2.187383         0.185611        -1.238694
 C         3.233270         0.622235        -0.426544
 C         2.482699         0.978382         0.783196
 O         2.220142         2.100661         1.574269
 H         5.540247        -0.782448         1.075742
 H         5.122597         0.407560         2.201290
 H         4.386933        -1.198952         2.519319
 H         2.387133        -2.140436         0.088339
 H         1.614047        -1.541018         1.640306
 H        -0.211835        -0.227110         1.049568
 H        -0.540234         0.854961        -0.387221
 H        -0.606648        -0.832249        -0.455336
 H         4.156755         0.954407        -0.974702
 H         1.837528         2.863736         0.902734
