19
Iteration:  1516
 C         4.686266        -0.416848         1.649169
 C         3.318771        -0.214390         0.902664
 C         2.181008        -1.209865         0.832965
 C         1.419178        -0.062136        -0.014285
 C        -0.040432         0.168852        -0.179627
 O         2.219880         0.005294        -1.226226
 C         3.227742         0.708598        -0.490643
 C         2.365508         0.936666         0.761057
 O         2.226696         1.933195         1.717832
 H         5.538989        -1.120153         1.191375
 H         5.209486         0.554608         1.600627
 H         4.658861        -0.711487         2.717135
 H         2.192884        -2.116717         0.272754
 H         1.727455        -1.505423         1.808891
 H        -0.515787         0.051349         0.827347
 H        -0.364250         1.101743        -0.665575
 H        -0.589468        -0.603685        -0.750118
 H         4.078755         1.075428        -1.119869
 H         1.879808         2.582411         1.212174
