19
Iteration:  4444charge 0 multiplicity 1
 C         4.652832        -0.430446         1.665639
 C         3.363788        -0.291494         0.849221
 C         2.177376        -1.220862         0.786036
 C         1.411937        -0.083525         0.049681
 C        -0.070250        -0.108212        -0.037361
 O         2.196151         0.185543        -1.277823
 C         3.225253         0.597857        -0.346987
 C         2.447923         0.989901         0.850044
 O         2.217906         2.145238         1.491283
 H         5.128858        -1.288893         1.104194
 H         5.423137         0.424534         1.740520
 H         4.444034        -0.597361         2.758687
 H         2.453658        -2.164344         0.117428
 H         1.712618        -1.571914         1.743595
 H        -0.572553        -0.280819         0.955732
 H        -0.478600         0.849426        -0.416042
 H        -0.224065        -0.748566        -0.915047
 H         4.068427         1.184816        -0.797914
 H         1.771848         2.727681         0.988821
