19
Iteration:  3722charge 0 multiplicity 1
 C         4.623748        -0.360307         1.596386
 C         3.362806        -0.270262         0.871318
 C         2.211114        -1.222057         0.850715
 C         1.408695        -0.002966         0.044328
 C        -0.006040         0.024602        -0.181912
 O         2.110352         0.101507        -1.186697
 C         3.255037         0.560958        -0.349012
 C         2.333251         0.882002         0.863247
 O         2.328380         2.067730         1.503403
 H         5.221392        -1.175143         1.213309
 H         5.310348         0.612923         1.362456
 H         4.603029        -0.404223         2.663326
 H         2.297292        -2.112329         0.229079
 H         1.946408        -1.355434         1.852715
 H        -0.547464        -0.138607         0.732917
 H        -0.365598         0.842400        -0.789488
 H        -0.525895        -0.812719        -0.717268
 H         4.003990         1.207096        -0.718112
 H         1.633471         2.543128         1.256430
