19
Iteration:  3643charge 0 multiplicity 1
 C         4.672370        -0.451966         1.724666
 C         3.419017        -0.287147         0.834444
 C         2.137347        -1.123519         0.824767
 C         1.467529        -0.053273        -0.028174
 C        -0.113619        -0.123621         0.003894
 O         2.149337         0.119372        -1.264046
 C         3.234912         0.637532        -0.503084
 C         2.555086         0.993174         0.734473
 O         2.153295         2.063387         1.536420
 H         5.383535        -1.260010         1.395483
 H         5.143634         0.515531         2.089087
 H         4.272807        -0.756577         2.692840
 H         2.191688        -2.150761         0.507042
 H         1.552279        -1.024758         1.724336
 H        -0.594869        -0.232989         1.025974
 H        -0.600516         0.847621        -0.145172
 H        -0.630368        -0.698084        -0.737199
 H         4.106151         1.053276        -1.055130
 H         2.720058         2.946933         1.532085
