19
Iteration:  3352charge 0 multiplicity 1
 C         4.602691        -0.298533         1.533902
 C         3.276691        -0.268179         0.985919
 C         2.170028        -1.283586         0.754909
 C         1.396261        -0.107825         0.042141
 C        -0.085114         0.076897        -0.120089
 O         2.290539         0.068029        -1.185683
 C         3.243921         0.584589        -0.349114
 C         2.383925         0.956687         0.742096
 O         2.285622         2.066585         1.614627
 H         5.251399        -1.025793         1.089839
 H         5.174378         0.703855         1.348761
 H         4.574138        -0.604431         2.642897
 H         2.447191        -2.148915         0.130682
 H         1.864316        -1.721608         1.712099
 H        -0.602496         0.310205         0.789231
 H        -0.347576         0.779594        -0.854941
 H        -0.548055        -0.853573        -0.447746
 H         4.123002         0.962141        -0.815160
 H         1.844906         2.782292         0.962948
