19
Iteration:  3911
 C         4.670554        -0.357234         1.647800
 C         3.358173        -0.264953         0.870540
 C         2.161980        -1.247443         0.752890
 C         1.416819        -0.036168         0.098198
 C        -0.002621        -0.046612        -0.205655
 O         2.130324         0.034659        -1.171732
 C         3.220614         0.555307        -0.430473
 C         2.402226         1.000500         0.785010
 O         2.288762         2.150576         1.629012
 H         5.201259        -1.317599         1.303203
 H         5.387010         0.551491         1.528115
 H         4.557312        -0.590704         2.773355
 H         2.326774        -2.123337         0.126939
 H         1.561828        -1.288954         1.682218
 H        -0.448880        -0.249550         0.763723
 H        -0.293404         0.934937        -0.598386
 H        -0.494796        -0.842748        -0.860057
 H         3.923360         1.130224        -0.957071
 H         1.702017         2.851572         1.198234
