19
Iteration:   759
 C         4.601323        -0.429946         1.741264
 C         3.308249        -0.281041         0.934343
 C         2.167039        -1.299552         0.600462
 C         1.460775        -0.064178         0.017057
 C        -0.076404         0.100028         0.062489
 O         2.206211         0.053420        -1.245325
 C         3.290063         0.707329        -0.341830
 C         2.453940         0.945947         0.781910
 O         2.238463         2.127298         1.485817
 H         5.310344        -1.078985         1.181133
 H         5.118531         0.413637         1.945018
 H         4.362065        -0.938320         2.682695
 H         2.596787        -1.992065        -0.237525
 H         1.713454        -1.916172         1.402514
 H        -0.423455        -0.118263         1.081643
 H        -0.497374         1.037840        -0.422573
 H        -0.558799        -0.690471        -0.529842
 H         4.182632         0.992590        -0.930840
 H         1.483350         2.521266         0.923869
