19
Iteration:  4476
 C         4.609921        -0.346075         1.726071
 C         3.328078        -0.264202         0.894089
 C         2.264204        -1.275901         0.714699
 C         1.399611        -0.072944         0.042510
 C        -0.081795        -0.044686        -0.072394
 O         2.116278         0.148102        -1.205199
 C         3.222869         0.613445        -0.406531
 C         2.438216         0.953790         0.771484
 O         2.286806         2.088135         1.530653
 H         4.981886        -1.396485         1.518134
 H         5.372878         0.402797         1.572465
 H         4.433965        -0.527657         2.838102
 H         2.643263        -1.943942        -0.126685
 H         1.883373        -1.633335         1.685092
 H        -0.578876        -0.563633         0.772149
 H        -0.458033         0.929227        -0.286871
 H        -0.268481        -0.803032        -0.820236
 H         3.993009         1.213949        -0.931453
 H         2.229298         3.044131         1.025404
