19
Iteration:   386charge 0 multiplicity 1
 C         4.599410        -0.503602         1.886093
 C         3.396043        -0.320734         0.865029
 C         2.213363        -1.240038         0.709189
 C         1.443830         0.015431         0.043453
 C        -0.022443         0.048593         0.087300
 O         2.194124         0.194513        -1.285142
 C         3.239736         0.602299        -0.511752
 C         2.468030         0.960822         0.735286
 O         2.103446         2.061811         1.398739
 H         5.292515        -1.274156         1.426785
 H         5.171473         0.306168         2.204027
 H         4.270725        -0.927954         2.876211
 H         2.176430        -2.229586         0.140179
 H         1.691435        -1.397598         1.630812
 H        -0.408824        -0.135130         1.109806
 H        -0.452445         0.980603        -0.223788
 H        -0.367856        -0.808810        -0.472260
 H         3.993047         1.133671        -1.115771
 H         2.671411         2.763803         1.309064
