19
Iteration:  3496
 C         4.579952        -0.340102         1.704180
 C         3.285302        -0.256446         0.953113
 C         2.190355        -1.272860         0.801556
 C         1.393107        -0.092647         0.099862
 C        -0.039300        -0.077354        -0.160490
 O         2.143519         0.103172        -1.249799
 C         3.189459         0.692764        -0.492101
 C         2.445570         0.966617         0.810619
 O         2.396804         2.076134         1.552612
 H         5.347315        -1.002384         1.293942
 H         5.109057         0.623341         1.673125
 H         4.380038        -0.794522         2.736236
 H         2.245719        -2.098917         0.085953
 H         1.834944        -1.631383         1.799587
 H        -0.633469        -0.206185         0.699636
 H        -0.359028         0.889197        -0.512381
 H        -0.363431        -0.760379        -0.862612
 H         4.080512         1.127311        -0.954895
 H         2.040616         2.805836         1.089098
