19
Iteration:  2407charge 0 multiplicity 1
 C         4.613842        -0.403828         1.805400
 C         3.370412        -0.307634         0.848402
 C         2.185640        -1.282376         0.695345
 C         1.435142        -0.089005         0.101179
 C        -0.112477        -0.009295        -0.062291
 O         2.200360         0.093769        -1.260900
 C         3.182556         0.678219        -0.465844
 C         2.470875         0.964158         0.779401
 O         2.340905         2.123839         1.545424
 H         5.012806        -1.396733         1.710082
 H         5.222224         0.482346         1.532986
 H         4.235432        -0.170392         2.809764
 H         2.328392        -2.149750         0.012215
 H         1.832263        -1.571701         1.669980
 H        -0.759861        -0.247472         0.892206
 H        -0.377085         1.048113        -0.335099
 H        -0.508693        -0.736314        -0.780096
 H         3.965972         1.193494        -1.067240
 H         1.505868         2.723301         1.073699
