19
Iteration:  3521
 C         4.623017        -0.400057         1.690015
 C         3.382368        -0.120548         0.838522
 C         2.240326        -1.101167         0.835868
 C         1.403609        -0.074647        -0.002124
 C        -0.124157        -0.073842        -0.173268
 O         2.187177        -0.019700        -1.224399
 C         3.254908         0.592160        -0.504392
 C         2.365755         1.034956         0.767663
 O         2.298398         2.010638         1.695659
 H         5.173976        -1.276216         1.146270
 H         5.368165         0.332664         1.828220
 H         4.338771        -0.908797         2.631093
 H         2.288752        -2.068436         0.436566
 H         1.797614        -1.092641         1.806966
 H        -0.644195         0.066926         0.819820
 H        -0.458702         0.921498        -0.588979
 H        -0.635561        -0.807821        -0.779608
 H         3.956758         1.104224        -1.125008
 H         2.157659         2.847837         1.349807
