19
Iteration:  3925charge 0 multiplicity 1
 C         4.649929        -0.354091         1.649660
 C         3.323232        -0.258685         0.956215
 C         2.189356        -1.226483         0.749263
 C         1.450660        -0.128292        -0.028837
 C        -0.053389        -0.001187        -0.095204
 O         2.123174         0.094254        -1.249814
 C         3.238706         0.606446        -0.319276
 C         2.340263         0.935057         0.778610
 O         2.326967         2.088039         1.548797
 H         5.274980        -1.275714         1.286706
 H         5.212909         0.491135         1.365225
 H         4.545977        -0.245990         2.794408
 H         2.334308        -2.114052         0.211923
 H         1.791803        -1.572897         1.719240
 H        -0.465809         0.003135         0.951411
 H        -0.363539         0.950987        -0.563779
 H        -0.340252        -0.822781        -0.722480
 H         4.136206         1.210231        -0.668068
 H         1.863355         2.842970         1.047385
