19
Iteration:   735
 C         4.545922        -0.534493         1.829761
 C         3.372867        -0.270647         0.874717
 C         2.256246        -1.201050         0.653934
 C         1.459099        -0.061871         0.021350
 C        -0.048337         0.015438         0.090881
 O         2.171309         0.235400        -1.295854
 C         3.284431         0.549984        -0.401704
 C         2.398821         0.944225         0.698151
 O         2.227707         2.113966         1.466877
 H         5.302169        -1.204825         1.340322
 H         5.111100         0.355987         2.063612
 H         4.264432        -0.934422         2.823046
 H         2.619204        -2.225721         0.174476
 H         1.770759        -1.392176         1.585715
 H        -0.373106        -0.153754         1.100619
 H        -0.520125         0.967264        -0.305133
 H        -0.482235        -0.825260        -0.479974
 H         4.066874         1.167148        -0.901911
 H         1.489816         2.623917         1.138902
