19
Iteration:  4648charge 0 multiplicity 1
 C         4.637720        -0.482284         1.688503
 C         3.326442        -0.234386         0.833877
 C         2.231344        -1.198514         0.705913
 C         1.412504        -0.079807         0.057055
 C        -0.086844        -0.090810        -0.028583
 O         2.205520         0.100352        -1.290374
 C         3.246455         0.683277        -0.361656
 C         2.415066         0.962337         0.813970
 O         2.203081         2.154368         1.568183
 H         5.260188        -1.280380         1.201952
 H         5.405041         0.260925         1.585230
 H         4.318227        -0.577253         2.757486
 H         2.458424        -2.119151         0.239990
 H         1.976753        -1.523167         1.764005
 H        -0.446948        -0.483518         0.994705
 H        -0.438335         0.929104        -0.162096
 H        -0.454280        -0.757650        -0.857536
 H         4.159894         1.166920        -0.785592
 H         1.886856         2.855857         0.797723
