19
Iteration:  1015
 C         4.620731        -0.376888         1.609290
 C         3.306850        -0.157001         0.869419
 C         2.169406        -1.238752         0.733557
 C         1.417695        -0.127764         0.031656
 C        -0.040393         0.089883        -0.209280
 O         2.139724         0.083995        -1.205851
 C         3.295995         0.607555        -0.402268
 C         2.356757         0.947696         0.804398
 O         2.323390         1.997786         1.727619
 H         4.915436        -1.353790         1.394472
 H         5.447083         0.364533         1.281213
 H         4.484457        -0.345464         2.648563
 H         2.272574        -2.310102         0.530515
 H         1.801275        -1.247214         1.853151
 H        -0.618627        -0.155005         0.653995
 H        -0.419837         0.964536        -0.798703
 H        -0.189688        -0.837128        -0.862191
 H         4.049435         0.974210        -1.050834
 H         2.181509         2.958792         1.258076
