19
Iteration:  2846
 C         4.610215        -0.350098         1.645430
 C         3.338182        -0.159110         0.832763
 C         2.117499        -1.078139         0.849282
 C         1.442406        -0.040150        -0.010954
 C        -0.084276        -0.059996        -0.165984
 O         2.197473        -0.062659        -1.223940
 C         3.269372         0.596890        -0.531952
 C         2.380152         1.085327         0.686115
 O         2.349934         1.932778         1.795607
 H         4.834095        -1.354559         1.465613
 H         5.345013         0.516551         1.313802
 H         4.520605        -0.327818         2.747882
 H         2.207938        -2.144950         0.567238
 H         1.593492        -1.032601         1.800793
 H        -0.636530        -0.531591         0.673619
 H        -0.547686         0.963463        -0.262643
 H        -0.196423        -0.616728        -1.094929
 H         4.117590         1.032080        -1.057417
 H         1.984905         2.890326         1.535991
