19
Iteration:    32charge 0 multiplicity 1
 C         4.500345        -0.442695         1.912909
 C         3.339934        -0.241363         0.925523
 C         2.275740        -1.184792         0.692831
 C         1.412729        -0.029910         0.003125
 C        -0.085067        -0.056636         0.043037
 O         2.074362         0.054324        -1.260996
 C         3.240701         0.572336        -0.617457
 C         2.526937         1.006101         0.710034
 O         2.297382         2.182543         1.464673
 H         5.300785        -1.027498         1.585138
 H         4.877213         0.607806         2.024992
 H         4.202845        -0.766531         2.896227
 H         2.451498        -1.988506         0.108822
 H         1.828549        -1.651088         1.577533
 H        -0.450325        -0.393594         1.037695
 H        -0.601659         0.864474        -0.253644
 H        -0.426227        -0.776857        -0.725923
 H         4.054778         0.862249        -1.276476
 H         3.132254         2.271224         2.203882
