19
Iteration:  2919
 C         4.586153        -0.430903         1.681055
 C         3.315752        -0.219368         0.967059
 C         2.268719        -1.282024         0.621742
 C         1.474048        -0.091458         0.109463
 C        -0.146220         0.017935         0.029852
 O         2.237619         0.108143        -1.240287
 C         3.278276         0.607067        -0.385921
 C         2.377184         0.950845         0.783119
 O         2.222048         2.129464         1.456496
 H         5.170585        -1.160863         1.053336
 H         4.951438         0.549632         1.984916
 H         4.455054        -0.986747         2.585097
 H         2.468443        -2.217035         0.058962
 H         2.016404        -1.601203         1.673723
 H        -0.656723         0.226675         1.054448
 H        -0.488578         0.912711        -0.619527
 H        -0.460652        -0.911736        -0.488243
 H         4.102747         1.158974        -0.673305
 H         2.099406         2.864921         0.724934
