19
Iteration:  2432
 C         4.582480        -0.378861         1.749691
 C         3.266122        -0.200582         0.927526
 C         2.243267        -1.233310         0.665229
 C         1.443553        -0.053766        -0.010612
 C        -0.090729        -0.004994        -0.029343
 O         2.182301         0.065181        -1.235648
 C         3.297186         0.570041        -0.371244
 C         2.351553         0.982158         0.709678
 O         2.365613         2.072947         1.548816
 H         4.808199        -1.422447         1.430383
 H         5.255776         0.317736         1.387523
 H         4.289609        -0.112655         2.823868
 H         2.519832        -1.965424        -0.022343
 H         1.808787        -1.518411         1.601912
 H        -0.367150        -0.523972         0.941795
 H        -0.537312         1.016013         0.089471
 H        -0.652131        -0.773046        -0.670098
 H         4.061533         1.083773        -0.876541
 H         1.790901         2.780512         1.080769
