19
Iteration:  1976charge 0 multiplicity 1
 C         4.659408        -0.422566         1.616306
 C         3.363753        -0.269658         0.896683
 C         2.165771        -1.272178         0.791258
 C         1.439893        -0.064452         0.112503
 C        -0.073337        -0.018687        -0.191645
 O         2.148954         0.132069        -1.219322
 C         3.191498         0.598528        -0.410822
 C         2.467514         0.935299         0.814575
 O         2.255936         2.129706         1.608506
 H         5.508011        -0.954535         1.115918
 H         5.173091         0.583163         1.848436
 H         4.435995        -0.857125         2.547648
 H         2.339821        -2.236989         0.407470
 H         1.712307        -1.310273         1.806158
 H        -0.677866         0.115166         0.741781
 H        -0.414537         0.758226        -0.880162
 H        -0.524169        -0.862699        -0.813599
 H         3.985973         1.126124        -0.830274
 H         2.267021         2.874792         0.780504
