19
Iteration:  3015charge 0 multiplicity 1
 C         4.629423        -0.212649         1.536191
 C         3.280466        -0.278953         1.036556
 C         2.187375        -1.322756         0.735755
 C         1.398984        -0.139988         0.113254
 C        -0.115043         0.066776        -0.238666
 O         2.197380         0.030528        -1.183028
 C         3.172210         0.612151        -0.365685
 C         2.394367         0.974746         0.800710
 O         2.411469         2.071234         1.610544
 H         5.284771        -1.228884         1.380095
 H         5.209224         0.617201         1.206706
 H         4.587992        -0.062662         2.722864
 H         2.302518        -2.213951         0.083412
 H         1.741636        -1.802384         1.667236
 H        -0.809152        -0.021583         0.581127
 H        -0.148219         0.977127        -0.748351
 H        -0.314433        -0.698238        -0.928767
 H         4.091726         0.949477        -0.814619
 H         1.800306         2.721089         1.093747
