19
Iteration:   774charge 0 multiplicity 1
 C         4.587042        -0.424109         1.642439
 C         3.300295        -0.297129         0.910485
 C         2.225349        -1.311350         0.665617
 C         1.449193        -0.051352         0.084020
 C         0.001746         0.102881        -0.042526
 O         2.227089         0.105362        -1.201340
 C         3.251930         0.571605        -0.421373
 C         2.382522         0.950870         0.783351
 O         2.192669         2.080976         1.556650
 H         5.324822        -1.038028         1.160928
 H         4.975935         0.684246         1.821443
 H         4.539085        -0.743996         2.682172
 H         2.270315        -2.118598        -0.021656
 H         1.749765        -1.566586         1.659513
 H        -0.562440         0.115024         0.946475
 H        -0.242167         1.112956        -0.354612
 H        -0.364407        -0.716683        -0.700624
 H         4.113331         1.108782        -0.767598
 H         1.961099         2.939288         0.917125
