19
Iteration:  1444charge 0 multiplicity 1
 C         4.573549        -0.396099         1.721779
 C         3.330485        -0.264185         0.861933
 C         2.089881        -1.215176         0.697122
 C         1.385392        -0.019418        -0.063688
 C        -0.061984        -0.115228        -0.077203
 O         2.212670         0.243692        -1.271153
 C         3.299426         0.612313        -0.429019
 C         2.392407         0.959263         0.781595
 O         2.329748         2.021520         1.673489
 H         4.996849        -1.341509         1.648093
 H         5.481705         0.160049         1.291062
 H         4.438790        -0.186365         2.788719
 H         2.321550        -2.254258         0.346104
 H         1.706078        -1.399025         1.754002
 H        -0.381897        -0.374288         0.960077
 H        -0.541156         0.783877        -0.434133
 H        -0.532580        -0.920829        -0.652173
 H         4.282951         0.953908        -0.869343
 H         2.297242         2.863864         1.307329
