19
Iteration:  4804charge 0 multiplicity 1
 C         4.644295        -0.499473         1.655149
 C         3.388108        -0.164185         0.908058
 C         2.240076        -1.116364         0.719584
 C         1.434171        -0.104605         0.012226
 C        -0.042950        -0.106848         0.008080
 O         2.182282         0.154371        -1.235289
 C         3.185395         0.686504        -0.420760
 C         2.452659         0.952430         0.783038
 O         2.173426         2.067261         1.546855
 H         5.157850        -1.514321         1.445424
 H         5.362423         0.246594         1.887211
 H         4.276594        -1.031320         2.579888
 H         2.458483        -1.935343         0.007300
 H         1.814355        -1.446455         1.667457
 H        -0.566666         0.040591         0.959020
 H        -0.379944         0.725455        -0.738012
 H        -0.573701        -1.065211        -0.317524
 H         4.150153         1.029715        -0.882594
 H         1.847079         2.902806         0.912642
