19
Iteration:  4163
 C         4.555917        -0.380479         1.690410
 C         3.347605        -0.252875         0.898580
 C         2.269820        -1.266926         0.762413
 C         1.473018        -0.073068         0.020568
 C        -0.052823         0.064599        -0.023739
 O         2.128826         0.101150        -1.241642
 C         3.337090         0.601074        -0.396050
 C         2.385378         0.935054         0.758933
 O         2.245073         2.037855         1.505900
 H         5.235405        -1.107130         1.237183
 H         5.186664         0.679388         1.762358
 H         4.364440        -0.546249         2.783486
 H         2.622725        -2.012447         0.009829
 H         1.624119        -1.619778         1.667197
 H        -0.416005         0.171697         1.060106
 H        -0.656773         0.785155        -0.602082
 H        -0.641392        -0.786608        -0.410085
 H         4.117165         1.064533        -0.873887
 H         1.651711         2.874794         1.092607
