19
Iteration:  3439
 C         4.617954        -0.418055         1.710242
 C         3.278972        -0.200154         0.925284
 C         2.197563        -1.214616         0.709162
 C         1.447549        -0.102165         0.019814
 C        -0.047821        -0.019436        -0.015054
 O         2.178060         0.069579        -1.281946
 C         3.251991         0.646211        -0.392154
 C         2.376318         0.959712         0.749429
 O         2.264886         2.073787         1.542991
 H         5.104286        -1.302177         1.375162
 H         5.265057         0.571462         1.752086
 H         4.315352        -0.442834         2.805557
 H         2.381888        -2.180645         0.102215
 H         1.835019        -1.432321         1.756792
 H        -0.416385        -0.379763         0.923564
 H        -0.312421         0.959170        -0.277007
 H        -0.415442        -0.698074        -0.770123
 H         4.074725         1.213919        -0.914645
 H         2.465467         2.838002         1.076454
