19
Iteration:  3347charge 0 multiplicity 1
 C         4.639125        -0.306142         1.562677
 C         3.252392        -0.222945         0.981960
 C         2.204032        -1.272800         0.726217
 C         1.370908        -0.058760         0.030477
 C        -0.086743         0.075180        -0.125501
 O         2.271396         0.046586        -1.159903
 C         3.248334         0.570692        -0.351214
 C         2.368709         0.950007         0.768902
 O         2.289641         2.029966         1.584698
 H         5.324920        -1.047574         1.029616
 H         5.135420         0.655757         1.491025
 H         4.552895        -0.506209         2.603498
 H         2.395496        -2.211763         0.113070
 H         1.812730        -1.677341         1.692366
 H        -0.610396         0.204195         0.862803
 H        -0.336120         0.823211        -0.961951
 H        -0.530714        -0.900501        -0.430077
 H         4.107121         1.050968        -0.885392
 H         2.070368         2.818767         1.064773
