19
Iteration:  4706charge 0 multiplicity 1
 C         4.690296        -0.235063         1.634760
 C         3.386571        -0.285716         0.803246
 C         2.159828        -1.223169         0.762980
 C         1.378743        -0.059799         0.043228
 C        -0.033833        -0.022782        -0.164736
 O         2.133363         0.112877        -1.169123
 C         3.278634         0.524939        -0.490195
 C         2.367891         0.981924         0.778113
 O         2.264679         1.968682         1.706884
 H         5.395153        -1.117376         1.547175
 H         5.147797         0.761195         1.651585
 H         4.464280        -0.423336         2.762842
 H         2.326880        -2.269580         0.384894
 H         1.698105        -1.156455         1.751393
 H        -0.586647        -0.244735         0.738662
 H        -0.385025         1.024246        -0.435923
 H        -0.374105        -0.674048        -0.989224
 H         3.952394         1.109679        -1.044557
 H         2.113101         2.774653         1.114234
