19
Iteration:  3171
 C         4.641582        -0.385159         1.606936
 C         3.291369        -0.216130         0.997602
 C         2.104689        -1.189409         0.800407
 C         1.484389        -0.083279         0.019365
 C        -0.012005        -0.002363        -0.068892
 O         2.233141        -0.007836        -1.218428
 C         3.201285         0.747721        -0.481729
 C         2.527471         0.977107         0.737334
 O         2.125581         1.995274         1.605314
 H         5.016826        -1.322972         0.950856
 H         5.167808         0.552324         1.424378
 H         4.602375        -0.720267         2.641470
 H         2.179941        -2.075126         0.064835
 H         1.664136        -1.377252         1.802753
 H        -0.472219         0.441199         0.792946
 H        -0.206231         0.791488        -0.829728
 H        -0.423640        -0.860389        -0.424754
 H         4.084184         0.901518        -0.970346
 H         2.635989         2.943959         1.520480
