19
Iteration:  2069
 C         4.569713        -0.360312         1.749818
 C         3.330116        -0.247978         0.884987
 C         2.221800        -1.268403         0.693459
 C         1.412033        -0.058263         0.064963
 C        -0.083322         0.022309        -0.043285
 O         2.156399         0.112058        -1.222585
 C         3.246459         0.607076        -0.448583
 C         2.444803         0.949759         0.725959
 O         2.283672         2.009483         1.530809
 H         5.156821        -1.233225         1.627373
 H         5.208345         0.388146         1.396038
 H         4.322718        -0.150862         2.830083
 H         2.372693        -2.235956         0.070213
 H         1.737614        -1.513066         1.654753
 H        -0.304827        -0.145651         0.984781
 H        -0.441431         1.008239        -0.282413
 H        -0.488589        -0.639651        -0.707814
 H         4.211747         1.063940        -0.812317
 H         2.340790         3.038369         1.266655
