19
Iteration:  2687charge 0 multiplicity 1
 C         4.661103        -0.407101         1.612517
 C         3.302473        -0.224938         0.935991
 C         2.174461        -1.218295         0.842792
 C         1.461826        -0.122431         0.038619
 C        -0.030770         0.064511        -0.198239
 O         2.213690        -0.024204        -1.188487
 C         3.172907         0.664923        -0.451286
 C         2.384407         1.019652         0.758345
 O         2.287681         2.103638         1.618165
 H         5.163507        -1.142558         1.023179
 H         5.279754         0.388326         1.879883
 H         4.578584        -0.882935         2.578471
 H         2.348270        -2.123938         0.357972
 H         1.790331        -1.550148         1.746102
 H        -0.625996         0.009847         0.749472
 H        -0.284327         1.040849        -0.626141
 H        -0.511639        -0.800201        -0.810160
 H         4.049102         1.089492        -1.029021
 H         1.536308         2.645433         1.285215
