19
Iteration:  4159charge 0 multiplicity 1
 C         4.528125        -0.382517         1.698937
 C         3.290931        -0.280161         0.898980
 C         2.287638        -1.245203         0.773713
 C         1.465052        -0.059747         0.010627
 C        -0.039635         0.041199        -0.007441
 O         2.139929         0.115226        -1.239651
 C         3.320934         0.630176        -0.387428
 C         2.379979         0.880508         0.733623
 O         2.271581         2.067456         1.490935
 H         5.275560        -1.073546         1.292354
 H         5.148033         0.683061         1.670882
 H         4.340539        -0.487726         2.741673
 H         2.561905        -2.027513         0.030085
 H         1.819084        -1.687151         1.600930
 H        -0.348669         0.161298         1.039755
 H        -0.605803         0.853324        -0.540763
 H        -0.665165        -0.838420        -0.387955
 H         4.268635         1.099062        -0.833610
 H         1.685731         2.641569         1.201363
