19
Iteration:  3948charge 0 multiplicity 1
 C         4.585896        -0.311958         1.714492
 C         3.374374        -0.309482         0.936805
 C         2.204933        -1.281963         0.707874
 C         1.374656        -0.096969         0.108028
 C        -0.186604        -0.016695        -0.023834
 O         2.254412         0.143130        -1.259762
 C         3.263004         0.655621        -0.462020
 C         2.499444         0.935963         0.721482
 O         2.217703         2.056386         1.521625
 H         5.122577        -1.295030         1.309883
 H         5.254496         0.458929         1.457261
 H         4.418336        -0.291113         2.862514
 H         2.300281        -2.192435         0.175313
 H         1.757368        -1.703753         1.613982
 H        -0.461831         0.175580         1.075574
 H        -0.554885         0.925553        -0.471115
 H        -0.576875        -0.886287        -0.483255
 H         4.306512         1.057534        -0.725187
 H         2.349856         2.923788         1.048517
