19
Iteration:   130
 C         4.734209        -0.426640         1.481559
 C         3.370185        -0.230765         0.918430
 C         2.090867        -1.132100         0.948065
 C         1.422424        -0.104915         0.083930
 C        -0.032762         0.153475        -0.226976
 O         2.261932        -0.027769        -1.112410
 C         3.241248         0.753758        -0.383380
 C         2.384233         0.919333         0.746350
 O         2.154158         1.934982         1.555874
 H         4.988012        -1.365557         1.064495
 H         5.495267         0.363664         1.136927
 H         4.802252        -0.513370         2.570135
 H         2.147149        -2.320752         0.631740
 H         1.650537        -1.090033         2.022314
 H        -0.598726         0.407275         0.683726
 H        -0.154174         1.050490        -0.869331
 H        -0.540736        -0.689860        -0.726857
 H         4.159665         1.125410        -0.805467
 H         1.727453         2.583787         0.880047
