19
Iteration:  3415charge 0 multiplicity 1
 C         4.590604        -0.484742         1.708465
 C         3.380589        -0.196331         0.791626
 C         2.253523        -1.158572         0.803077
 C         1.466039        -0.113160         0.079204
 C        -0.063333         0.053986        -0.056635
 O         2.207310         0.035705        -1.234888
 C         3.249145         0.611599        -0.536827
 C         2.458343         1.013699         0.741201
 O         2.127094         2.069380         1.630483
 H         4.942354        -1.431524         1.313421
 H         5.420581         0.319878         1.781529
 H         4.243731        -0.585933         2.727613
 H         2.401866        -2.205533         0.312564
 H         1.806270        -1.245575         1.838225
 H        -0.539082        -0.171049         0.923084
 H        -0.292284         1.005198        -0.529892
 H        -0.376888        -0.793275        -0.740831
 H         4.042086         1.034593        -1.063049
 H         1.841046         2.934131         1.236127
