19
Iteration:   450charge 0 multiplicity 1
 C         4.674732        -0.269329         1.690834
 C         3.353009        -0.329190         0.928455
 C         2.130454        -1.196876         0.772367
 C         1.390344        -0.070459        -0.027835
 C        -0.135286        -0.001332        -0.281814
 O         2.113165         0.108109        -1.206714
 C         3.233527         0.545204        -0.399159
 C         2.445041         0.920639         0.764414
 O         2.429663         2.060224         1.691425
 H         5.296033        -1.144980         1.248478
 H         5.142879         0.695308         1.543368
 H         4.558996        -0.366548         2.835150
 H         2.091795        -2.257371         0.550086
 H         1.759191        -1.062559         1.722415
 H        -0.793525        -0.106875         0.613218
 H        -0.391608         0.934070        -0.755269
 H        -0.338470        -0.880418        -0.908757
 H         4.066283         1.001043        -0.960693
 H         1.686394         2.568420         1.483471
