19
Iteration:  3295
 C         4.489668        -0.392115         1.728528
 C         3.354219        -0.253415         0.802944
 C         2.222032        -1.147367         0.814717
 C         1.415861        -0.062196         0.037386
 C        -0.032779        -0.086352        -0.058126
 O         2.092857         0.141735        -1.194305
 C         3.304892         0.643119        -0.448484
 C         2.451201         0.955355         0.711694
 O         2.303573         2.028442         1.538575
 H         5.156149        -1.116576         1.192349
 H         4.958106         0.624048         2.196488
 H         4.112447        -0.775813         2.704138
 H         2.333871        -2.176002         0.279336
 H         1.956396        -1.281172         1.897769
 H        -0.468839        -0.503005         0.826418
 H        -0.412545         0.845489        -0.328093
 H        -0.229815        -0.812872        -0.854835
 H         4.100639         1.139779        -1.021732
 H         2.545645         2.711375         1.023999
