19
Iteration:  1172
 C         4.661480        -0.470491         1.536684
 C         3.325970        -0.215206         0.870913
 C         2.155701        -1.187106         0.815519
 C         1.376592        -0.066138        -0.007579
 C        -0.057689         0.101385        -0.196283
 O         2.283288         0.053828        -1.186800
 C         3.231542         0.612751        -0.400105
 C         2.359879         0.969574         0.818697
 O         2.275848         2.023737         1.674743
 H         5.446862        -1.048077         1.108964
 H         5.155767         0.504432         1.842258
 H         4.552510        -0.955595         2.531641
 H         2.308754        -2.113095         0.152758
 H         1.804719        -1.420162         1.825527
 H        -0.529063        -0.031513         0.859651
 H        -0.415745         1.064366        -0.590583
 H        -0.523567        -0.698503        -0.803323
 H         4.057880         1.141506        -0.894601
 H         1.417925         2.636412         1.400092
