19
Iteration:  1868charge 0 multiplicity 1
 C         4.626420        -0.265245         1.697180
 C         3.363531        -0.274053         0.871212
 C         2.148518        -1.243128         0.766775
 C         1.462731        -0.047970        -0.003097
 C        -0.078292         0.040613        -0.120076
 O         2.142586         0.128925        -1.223251
 C         3.260897         0.564015        -0.468784
 C         2.401622         0.944037         0.740149
 O         2.296348         1.963697         1.703042
 H         5.091102        -1.261552         1.582661
 H         5.376505         0.472571         1.189627
 H         4.494730        -0.061805         2.722585
 H         2.159355        -2.253983         0.213329
 H         1.606356        -1.435698         1.814217
 H        -0.615629        -0.264746         0.777934
 H        -0.264547         1.036430        -0.568890
 H        -0.310185        -0.722494        -0.896681
 H         4.051292         0.931763        -1.135571
 H         2.022707         2.716084         1.320214
