19
Iteration:   577charge 0 multiplicity 1
 C         4.514463        -0.489717         1.777805
 C         3.375149        -0.241115         0.842524
 C         2.205201        -1.295764         0.702651
 C         1.478542        -0.069013        -0.005833
 C        -0.077753         0.035188         0.043889
 O         2.195541         0.122591        -1.257110
 C         3.273027         0.672004        -0.383627
 C         2.463411         0.982639         0.745879
 O         2.186910         2.096963         1.460694
 H         5.233794        -1.114611         1.293058
 H         5.118731         0.443915         2.016844
 H         4.158067        -1.010489         2.646526
 H         2.438318        -2.205485         0.109383
 H         1.906909        -1.593445         1.790737
 H        -0.244050        -0.216448         1.113593
 H        -0.490543         1.008191        -0.215052
 H        -0.732464        -0.686657        -0.473315
 H         4.178836         1.160890        -0.769867
 H         2.385234         2.834033         1.032845
