19
Iteration:  1979charge 0 multiplicity 1
 C         4.647921        -0.419856         1.617586
 C         3.384766        -0.254633         0.892687
 C         2.174500        -1.270006         0.814200
 C         1.441273        -0.089145         0.101223
 C        -0.078604        -0.005126        -0.218577
 O         2.128483         0.107162        -1.205945
 C         3.207265         0.598755        -0.432237
 C         2.465705         0.944325         0.824719
 O         2.266548         2.143813         1.613998
 H         5.395033        -0.968261         1.122399
 H         5.161861         0.567926         1.811446
 H         4.479145        -0.881220         2.577270
 H         2.360032        -2.285618         0.314848
 H         1.659423        -1.408594         1.826966
 H        -0.660345         0.069138         0.645162
 H        -0.411148         0.786004        -0.888135
 H        -0.533470        -0.787630        -0.756914
 H         3.942973         1.272910        -0.898051
 H         2.231103         2.827841         1.018031
