19
Iteration:  3576
 C         4.760443        -0.339460         1.609204
 C         3.370653        -0.313800         0.934737
 C         2.199492        -1.270564         0.764030
 C         1.399791        -0.107732         0.034968
 C        -0.063051         0.090010        -0.071320
 O         2.167100         0.133335        -1.281183
 C         3.227253         0.525247        -0.294769
 C         2.355159         0.907552         0.809171
 O         2.214926         2.096271         1.513312
 H         5.319825        -1.324531         1.381746
 H         5.378693         0.493245         1.439297
 H         4.719389        -0.212992         2.700907
 H         2.398824        -2.130099         0.184718
 H         1.547033        -1.476421         1.591702
 H        -0.603824         0.291547         0.889049
 H        -0.294183         0.884278        -0.816639
 H        -0.546246        -0.771632        -0.451289
 H         4.088620         1.201710        -0.637296
 H         1.740522         2.732234         1.061938
