19
Iteration:  4855charge 0 multiplicity 1
 C         4.682448        -0.375504         1.639194
 C         3.340882        -0.251073         0.984489
 C         2.232672        -1.195668         0.725701
 C         1.387465        -0.034800         0.090163
 C        -0.094626        -0.050453        -0.171733
 O         2.125610         0.139669        -1.218484
 C         3.248005         0.599866        -0.437263
 C         2.450209         0.854562         0.835288
 O         2.218397         2.080746         1.576792
 H         5.408973        -0.987556         1.040792
 H         5.214986         0.593839         1.411894
 H         4.734169        -0.503368         2.763649
 H         2.538799        -2.116431         0.244926
 H         1.763980        -1.366964         1.802125
 H        -0.614829        -0.510300         0.707939
 H        -0.420654         0.983471        -0.332151
 H        -0.470607        -0.719414        -0.940840
 H         4.096218         1.073281        -0.886156
 H         2.133114         2.723189         0.961143
