19
Iteration:  3031
 C         4.657657        -0.220252         1.621663
 C         3.291143        -0.220241         0.902360
 C         2.189717        -1.286445         0.837455
 C         1.326293        -0.092393         0.040963
 C        -0.119779         0.005364        -0.284768
 O         2.129854         0.083156        -1.130226
 C         3.287851         0.543953        -0.402277
 C         2.422446         0.908116         0.799085
 O         2.369056         2.029265         1.633903
 H         5.116900        -1.162630         1.395348
 H         5.258889         0.660766         1.106392
 H         4.782705        -0.068255         2.636722
 H         2.494014        -2.126813         0.172218
 H         1.720866        -1.495556         1.779408
 H        -0.784822        -0.142867         0.617930
 H        -0.452165         1.104287        -0.531792
 H        -0.397011        -0.655091        -1.181740
 H         4.208865         0.900205        -0.916797
 H         2.261710         2.783512         1.191739
