19
Iteration:  3965charge 0 multiplicity 1
 C         4.620005        -0.384912         1.758802
 C         3.398996        -0.246263         0.840360
 C         2.181512        -1.208356         0.680699
 C         1.440008         0.006978        -0.022356
 C         0.018921        -0.004688         0.053595
 O         2.141481         0.077520        -1.239525
 C         3.300511         0.553106        -0.435640
 C         2.373252         0.949623         0.767923
 O         2.149690         2.055492         1.543329
 H         5.319949        -1.199079         1.678692
 H         5.259306         0.549711         1.631803
 H         4.193171        -0.449142         2.770905
 H         2.356183        -2.112772        -0.009314
 H         1.670974        -1.491091         1.659783
 H        -0.519247         0.085317         0.979973
 H        -0.391509         0.834315        -0.526091
 H        -0.418121        -0.974763        -0.342815
 H         4.023900         1.046909        -1.055591
 H         2.701658         2.854966         1.118738
