19
Iteration:  4217
 C         4.643708        -0.377701         1.538136
 C         3.338863        -0.195128         0.938180
 C         2.212880        -1.163296         0.882196
 C         1.416518        -0.083570         0.093217
 C        -0.035874         0.015735        -0.201554
 O         2.190630         0.085919        -1.186233
 C         3.317203         0.551169        -0.448719
 C         2.333804         0.940928         0.804621
 O         2.141152         2.013882         1.569100
 H         5.089373        -1.146114         0.908005
 H         5.334188         0.648235         1.734879
 H         4.641165        -0.930321         2.499711
 H         2.374115        -2.113750         0.358148
 H         1.912506        -1.155249         1.977925
 H        -0.600725         0.119127         0.811260
 H        -0.200942         1.020495        -0.699623
 H        -0.561254        -0.807638        -0.763102
 H         4.219114         0.927773        -0.853177
 H         2.608405         2.839114         1.121605
