19
Iteration:  3005charge 0 multiplicity 1
 C         4.678965        -0.272373         1.586085
 C         3.268815        -0.249176         0.973995
 C         2.158752        -1.278271         0.732557
 C         1.359265        -0.118884         0.094844
 C        -0.002375         0.043730        -0.221483
 O         2.180678        -0.006038        -1.222243
 C         3.164686         0.593746        -0.383859
 C         2.385951         0.892902         0.842052
 O         2.374053         2.127842         1.610170
 H         5.440079        -1.210311         1.396475
 H         5.123028         0.678536         1.300632
 H         4.586828        -0.177262         2.734152
 H         2.389967        -2.012885        -0.082116
 H         1.637793        -1.643672         1.676775
 H        -0.507427         0.154381         0.737047
 H        -0.213118         0.972435        -0.698541
 H        -0.411692        -0.730275        -0.782429
 H         4.009770         1.186289        -0.732597
 H         1.760426         2.746341         1.250050
