19
Iteration:  1543charge 0 multiplicity 1
 C         4.615095        -0.438940         1.648536
 C         3.332323        -0.291238         0.842389
 C         2.156534        -1.139297         0.745434
 C         1.443944         0.017634         0.042697
 C        -0.011443         0.017334         0.005914
 O         2.180448         0.181059        -1.282635
 C         3.383149         0.501723        -0.419441
 C         2.432744         0.947883         0.761652
 O         2.139522         2.004514         1.622129
 H         5.421485        -0.847254         1.182679
 H         4.837541         0.613881         1.974793
 H         4.553366        -1.068898         2.549591
 H         2.133764        -2.186868         0.256662
 H         1.710647        -1.315755         1.745786
 H        -0.617320        -0.083651         0.934048
 H        -0.379104         0.968272        -0.476475
 H        -0.273615        -0.798338        -0.733947
 H         4.234525         0.939596        -0.866977
 H         1.889753         2.689523         0.966460
