19
Iteration:  2252
 C         4.530265        -0.404211         1.728437
 C         3.305054        -0.212716         0.944736
 C         2.190246        -1.141760         0.697412
 C         1.458567        -0.113443        -0.079354
 C        -0.048806        -0.084095         0.041395
 O         2.180296         0.096204        -1.311028
 C         3.319761         0.550675        -0.489414
 C         2.392212         1.016254         0.700023
 O         2.288581         2.068870         1.659521
 H         5.039172        -1.311608         1.622289
 H         5.385419         0.304811         1.598938
 H         4.236475        -0.262384         2.704279
 H         2.275522        -2.015105         0.117858
 H         1.613669        -1.389716         1.552240
 H        -0.386630        -0.342575         1.064087
 H        -0.391947         0.997433        -0.066386
 H        -0.684967        -0.670184        -0.677570
 H         4.263941         0.909732        -0.740501
 H         2.240104         3.067855         1.214850
