19
Iteration:   156charge 0 multiplicity 1
 C         4.741438        -0.498209         1.553802
 C         3.370560        -0.249933         0.981760
 C         2.149250        -1.183803         0.956753
 C         1.456631        -0.081583         0.020593
 C        -0.022205         0.088904        -0.186411
 O         2.155746         0.050976        -1.305764
 C         3.255942         0.545324        -0.392782
 C         2.448040         1.022432         0.774860
 O         2.133782         2.160972         1.577704
 H         5.197230        -1.388760         1.046596
 H         5.389858         0.300429         1.463445
 H         4.605516        -0.779053         2.602425
 H         2.334746        -2.127210         0.533113
 H         1.685472        -1.179719         1.900615
 H        -0.572926         0.184637         0.748744
 H        -0.270133         1.000608        -0.749589
 H        -0.433925        -0.803621        -0.669118
 H         4.221324         0.922960        -0.848661
 H         1.273329         2.027549         1.607456
