19
Iteration:  2944
 C         4.640659        -0.536283         1.744257
 C         3.395030        -0.193240         0.858654
 C         2.128166        -1.152509         0.709806
 C         1.533686        -0.041842        -0.006976
 C         0.014274        -0.048040         0.060820
 O         2.171254         0.063577        -1.249977
 C         3.275750         0.623606        -0.506129
 C         2.402691         1.027144         0.721223
 O         2.086936         2.078060         1.543502
 H         5.304152        -1.222071         1.320884
 H         5.004189         0.469845         2.293356
 H         4.207433        -1.100170         2.614942
 H         2.399103        -2.144539         0.368598
 H         1.654549        -1.308547         1.652501
 H        -0.147295         0.265809         1.172502
 H        -0.583831         0.851976        -0.466981
 H        -0.406119        -1.099718        -0.212518
 H         4.243920         1.126789        -0.934794
 H         2.363852         3.009058         0.996297
