19
Iteration:  2176
 C         4.628327        -0.385097         1.591688
 C         3.316139        -0.183814         0.951758
 C         2.157511        -1.186585         0.799126
 C         1.348994        -0.103172         0.002077
 C        -0.099061         0.024748        -0.173340
 O         2.213878        -0.032182        -1.195327
 C         3.194127         0.645343        -0.438312
 C         2.457268         1.007395         0.781607
 O         2.325417         2.031965         1.655460
 H         5.240268        -1.096404         1.053410
 H         5.276235         0.542605         1.757565
 H         4.646248        -0.750961         2.652895
 H         2.431293        -2.026151         0.245445
 H         1.751203        -1.430553         1.749657
 H        -0.763275         0.039708         0.702401
 H        -0.180283         0.973077        -0.806017
 H        -0.517683        -0.864942        -0.740627
 H         4.087424         1.059464        -0.890463
 H         2.217379         2.986235         1.234874
