19
Iteration:   407
 C         4.468458        -0.414809         1.749124
 C         3.365158        -0.280266         0.812576
 C         2.246153        -1.276846         0.619927
 C         1.423609        -0.054039         0.014192
 C        -0.088178         0.035059         0.014230
 O         2.142275         0.030734        -1.232354
 C         3.349942         0.623394        -0.352418
 C         2.430935         0.968495         0.800344
 O         2.242911         2.134360         1.530034
 H         5.307691        -1.110895         1.406556
 H         4.892337         0.568885         1.836115
 H         4.209015        -0.528348         2.842931
 H         2.406858        -2.138212        -0.044894
 H         1.822063        -1.664247         1.484730
 H        -0.583523        -0.004303         1.002323
 H        -0.246808         1.042115        -0.321580
 H        -0.565862        -0.727057        -0.582009
 H         4.245290         1.059999        -0.818284
 H         2.850896         2.905790         1.023521
