19
Iteration:  4241charge 0 multiplicity 1
 C         4.737653        -0.370863         1.553479
 C         3.303136        -0.294414         1.016383
 C         2.128376        -1.280289         0.770501
 C         1.422359        -0.065781         0.016859
 C        -0.068789        -0.001280        -0.158454
 O         2.204730         0.027100        -1.192987
 C         3.215974         0.586423        -0.407020
 C         2.446260         1.030850         0.804393
 O         2.205918         2.157530         1.587780
 H         5.303256        -1.254603         1.140126
 H         5.298912         0.662152         1.580069
 H         4.654564        -0.707273         2.667450
 H         2.354925        -2.170662         0.171130
 H         1.667664        -1.450123         1.800337
 H        -0.661961        -0.220311         0.744757
 H        -0.445534         0.954400        -0.586532
 H        -0.317176        -0.817320        -0.835401
 H         4.113263         1.153651        -0.790342
 H         2.098225         2.900111         1.133122
