19
Iteration:   736
 C         4.551916        -0.531897         1.831861
 C         3.379050        -0.265026         0.889994
 C         2.260967        -1.199981         0.640378
 C         1.446628        -0.059210         0.022193
 C        -0.053886         0.015966         0.089829
 O         2.179684         0.232910        -1.289119
 C         3.278916         0.537170        -0.410417
 C         2.399717         0.938150         0.698973
 O         2.230309         2.116092         1.466868
 H         5.303197        -1.188582         1.325336
 H         5.068247         0.332522         2.024414
 H         4.265095        -0.940210         2.813899
 H         2.602461        -2.212484         0.150668
 H         1.767997        -1.405326         1.575618
 H        -0.329561        -0.164850         1.115602
 H        -0.498753         0.976660        -0.319557
 H        -0.522590        -0.805514        -0.471942
 H         4.074715         1.182284        -0.872049
 H         1.412243         2.685856         1.141900
