19
Iteration:  2147
 C         4.670937        -0.433590         1.553926
 C         3.319820        -0.313396         0.879731
 C         2.078310        -1.142806         0.889819
 C         1.416743         0.044521        -0.053928
 C        -0.029581        -0.026553        -0.086088
 O         2.215549         0.106342        -1.246068
 C         3.287086         0.527290        -0.393012
 C         2.437402         0.967393         0.767089
 O         2.201249         2.081111         1.613647
 H         5.492188        -0.987762         1.066434
 H         4.904062         0.531214         1.819312
 H         4.749592        -0.932612         2.604525
 H         2.321197        -2.163741         0.333171
 H         1.625945        -1.119931         1.920236
 H        -0.561203        -0.071208         0.858521
 H        -0.364768         0.730261        -0.735120
 H        -0.259551        -0.975486        -0.483007
 H         4.192399         0.918309        -0.719925
 H         1.919322         2.859149         1.252542
