19
Iteration:  1741
 C         4.584555        -0.397994         1.654125
 C         3.310407        -0.253874         0.900777
 C         2.125151        -1.250379         0.666407
 C         1.478674        -0.058774        -0.019549
 C        -0.061544        -0.040680         0.114523
 O         2.272704         0.177968        -1.222185
 C         3.293380         0.659492        -0.393390
 C         2.388705         0.939561         0.771355
 O         2.190811         2.040227         1.494727
 H         5.230686        -0.976143         1.033440
 H         5.161674         0.449212         2.034276
 H         4.281394        -1.057151         2.585751
 H         2.549886        -1.945229        -0.106981
 H         1.588074        -1.693677         1.441248
 H        -0.229110        -0.043038         1.224122
 H        -0.513243         0.958756        -0.311526
 H        -0.652959        -0.810075        -0.460851
 H         4.365966         0.871310        -0.575258
 H         2.226803         2.850196         0.932006
