19
Iteration:  2975
 C         4.625409        -0.454373         1.698769
 C         3.352162        -0.213761         0.873942
 C         2.199385        -1.181056         0.832435
 C         1.440655        -0.059414         0.104166
 C        -0.127712         0.005018        -0.062929
 O         2.208296         0.123812        -1.236779
 C         3.296761         0.616101        -0.511209
 C         2.475301         0.975657         0.705956
 O         2.168498         2.000086         1.549520
 H         5.357029        -1.080945         1.210918
 H         5.184160         0.548219         1.770617
 H         4.162690        -0.703631         2.578945
 H         2.461048        -2.166623         0.363044
 H         1.837393        -1.331813         1.879404
 H        -0.559953         0.047400         1.000195
 H        -0.416475         0.859116        -0.816378
 H        -0.651355        -0.946953        -0.360259
 H         4.289380         1.024787        -0.897043
 H         2.022177         2.769212         1.061620
