19
Iteration:  3743charge 0 multiplicity 1
 C         4.634393        -0.395576         1.655958
 C         3.365607        -0.254362         0.913701
 C         2.105450        -1.253932         0.805875
 C         1.408242        -0.046380         0.038597
 C        -0.056973        -0.048596        -0.044774
 O         2.195009         0.082239        -1.249583
 C         3.251834         0.647850        -0.512005
 C         2.541407         1.031925         0.686289
 O         2.257309         2.077046         1.643894
 H         5.159459        -1.313159         1.407773
 H         5.404627         0.533124         1.645195
 H         4.384181        -0.384121         2.702315
 H         2.160513        -2.246808         0.315868
 H         1.622413        -1.264054         1.759822
 H        -0.641593        -0.103340         0.895200
 H        -0.370832         0.764062        -0.702037
 H        -0.597489        -0.845590        -0.600776
 H         4.138610         0.826873        -1.065196
 H         1.370388         2.576355         1.299809
