19
Iteration:  1977
 C         4.654634        -0.423820         1.617314
 C         3.370662        -0.264523         0.895727
 C         2.168328        -1.272881         0.797292
 C         1.442194        -0.071642         0.110551
 C        -0.075108        -0.014287        -0.200324
 O         2.142485         0.124423        -1.215589
 C         3.196339         0.598474        -0.418086
 C         2.468058         0.937544         0.817396
 O         2.258979         2.133982         1.611993
 H         5.472569        -0.952057         1.123020
 H         5.179092         0.588308         1.838671
 H         4.451276        -0.855531         2.537397
 H         2.348944        -2.251007         0.383705
 H         1.689928        -1.339835         1.820101
 H        -0.669620         0.100911         0.705126
 H        -0.419973         0.755493        -0.883004
 H        -0.534251        -0.830002        -0.799872
 H         3.959087         1.167669        -0.844742
 H         2.256592         2.874682         0.835990
