19
Iteration:  1915
 C         1.977927         2.074748        -0.476917
 C         1.959528         0.904079         0.425382
 C         2.395408         0.994997         1.852886
 C         2.488176        -0.555960         1.759038
 O         3.308679        -1.283894         2.644441
 C         0.998023        -0.903312         1.667135
 C         1.007393        -0.261317         0.292811
 C         2.548986        -0.451025         0.207074
 O         3.150179        -0.946321        -0.968187
 H         2.110640         1.688038        -1.523627
 H         1.088097         2.793915        -0.387454
 H         2.798334         2.888579        -0.190959
 H         3.353475         1.420707         1.692712
 H         1.748368         1.375968         2.647827
 H         3.669469        -0.612854         3.257691
 H         0.759251        -1.927861         1.796308
 H         0.328423        -0.336503         2.361601
 H         0.192386        -0.363719        -0.370525
 H         2.874278        -1.860424        -1.088683
