19
Iteration:  1866
 C         1.987868         1.966664        -0.638544
 C         1.942018         1.017699         0.476763
 C         2.532469         1.029982         1.857809
 C         2.436250        -0.549805         1.750673
 O         3.242858        -1.341889         2.533611
 C         1.008732        -1.001337         1.727526
 C         0.940890        -0.216577         0.376498
 C         2.405827        -0.380367         0.180153
 O         3.248589        -0.854739        -0.745525
 H         2.659868         1.657950        -1.471638
 H         0.989812         2.176228        -1.094724
 H         2.285594         2.925370        -0.226906
 H         3.619460         1.389766         1.917479
 H         1.841710         1.649049         2.511189
 H         4.174102        -1.188459         2.329640
 H         0.888482        -2.142247         1.431391
 H         0.354423        -0.858927         2.637966
 H         0.181233        -0.180773        -0.477486
 H         2.857198        -1.658482        -1.178478
