19
Iteration:  1739
 C         1.989898         2.136500        -0.487359
 C         2.000662         0.932421         0.439877
 C         2.436346         1.010711         1.808963
 C         2.512201        -0.592423         1.834737
 O         3.362165        -1.263751         2.704029
 C         0.944609        -0.889271         1.726240
 C         1.017945        -0.216139         0.354588
 C         2.464621        -0.474748         0.082312
 O         3.126073        -1.009953        -1.032029
 H         2.256579         3.065353         0.036317
 H         2.480624         1.708204        -1.367313
 H         0.893837         2.159192        -0.670901
 H         3.360581         1.669270         2.044694
 H         1.605096         1.272599         2.594095
 H         4.283764        -1.010813         2.551084
 H         0.740597        -1.922044         1.556305
 H         0.179711        -0.436576         2.383904
 H        -0.028004        -0.109753        -0.175273
 H         2.792705        -1.888597        -1.071172
