19
Iteration:  2200
 C         1.974849         2.195488        -0.679505
 C         1.854479         0.985129         0.324395
 C         2.334682         1.008198         1.804547
 C         2.416007        -0.523135         1.844825
 O         3.309409        -1.424495         2.379155
 C         0.868590        -0.964200         1.775475
 C         0.976034        -0.431689         0.316010
 C         2.494675        -0.382525         0.305112
 O         3.412858        -0.836836        -0.605967
 H         2.866569         2.236304        -1.234818
 H         1.112421         2.398735        -1.295995
 H         2.172486         3.076503        -0.095926
 H         3.421043         1.195360         1.712166
 H         1.847630         1.585559         2.746271
 H         4.168590        -1.028673         2.466970
 H         0.776780        -2.037881         1.857313
 H         0.131533        -0.390393         2.441461
 H         0.467955        -0.728312        -0.591596
 H         3.211734        -1.760975        -0.914061
