19
Iteration:  4551charge 0 multiplicity 1
 C         1.764927         2.153354        -0.492192
 C         1.948532         0.954314         0.394540
 C         2.304710         1.004508         1.869710
 C         2.389791        -0.595129         1.864192
 O         3.104359        -1.348299         2.798527
 C         0.957796        -1.048414         1.550546
 C         1.123729        -0.363875         0.229799
 C         2.646961        -0.401421         0.112891
 O         3.514779        -0.748414        -0.951437
 H         0.714817         2.424342        -0.541000
 H         2.468032         2.955431        -0.209562
 H         1.946434         1.615253        -1.411554
 H         3.339284         1.550189         2.021106
 H         1.459654         1.375741         2.527258
 H         3.655434        -0.772682         3.339095
 H         0.918986        -2.190669         1.312892
 H         0.104740        -0.810755         2.216723
 H         0.591384        -0.439815        -0.730771
 H         4.027620        -1.582157        -0.682538
