19
Iteration:  3000
 C         1.934057         2.165975        -0.566996
 C         1.882654         0.937817         0.351029
 C         2.266817         0.968281         1.904374
 C         2.350402        -0.597139         1.827275
 O         3.401766        -1.294166         2.507060
 C         0.810663        -1.023681         1.585616
 C         0.964540        -0.383224         0.140812
 C         2.465549        -0.381775         0.234654
 O         3.535726        -0.822255        -0.640988
 H         2.766558         2.730795        -0.156435
 H         2.164802         1.759318        -1.592090
 H         0.931875         2.673408        -0.669407
 H         3.289332         1.353728         1.974652
 H         1.575392         1.563772         2.564171
 H         3.861602        -0.653578         3.105524
 H         0.717025        -2.057010         1.489119
 H         0.104831        -0.557248         2.321724
 H         0.350070        -0.600426        -0.747889
 H         3.913986        -1.571463        -0.120807
