19
Iteration:   816charge 0 multiplicity 1
 C         1.727701         2.168239        -0.506943
 C         1.988188         0.936663         0.352766
 C         2.502621         1.084388         1.753666
 C         2.432919        -0.495696         1.821086
 O         3.200456        -1.242202         2.708374
 C         1.016891        -1.047914         1.698573
 C         1.042905        -0.387310         0.332098
 C         2.533143        -0.370720         0.106561
 O         3.345511        -1.047034        -0.804712
 H         1.074339         3.016376        -0.168816
 H         2.633208         2.582274        -1.020313
 H         1.183971         1.708948        -1.466791
 H         3.528366         1.315310         1.672947
 H         2.035636         1.730587         2.531525
 H         3.902624        -0.799433         3.209911
 H         0.997544        -2.198635         1.629658
 H         0.377252        -0.460953         2.405435
 H         0.324239        -0.299261        -0.601776
 H         3.044687        -1.610625        -1.585603
