19
Iteration:  1032charge 0 multiplicity 1
 C         1.704065         2.177624        -0.583017
 C         1.984334         0.952485         0.328907
 C         2.500315         0.964281         1.821270
 C         2.468870        -0.616328         1.770801
 O         3.332288        -1.230976         2.593717
 C         0.916422        -0.777380         1.791680
 C         1.042903        -0.322579         0.322967
 C         2.538696        -0.478302         0.171065
 O         3.329092        -1.128729        -0.808839
 H         2.416335         2.206569        -1.417883
 H         0.630198         2.419251        -0.727091
 H         2.109693         3.005917         0.091124
 H         3.591360         1.195923         1.901246
 H         1.971098         1.446078         2.552259
 H         3.938255        -0.489539         2.862509
 H         0.516758        -1.777133         1.791295
 H         0.256530        -0.165514         2.427708
 H         0.244718        -0.321997        -0.333243
 H         2.652642        -1.561183        -1.441097
