19
Iteration:  3025
 C         1.845634         2.082551        -0.532285
 C         2.012144         0.904799         0.367556
 C         2.229573         0.952441         1.885245
 C         2.428750        -0.617434         1.738989
 O         3.218749        -1.224067         2.632207
 C         0.932048        -0.998150         1.586733
 C         1.029406        -0.237042         0.261355
 C         2.495067        -0.484757         0.148231
 O         3.573483        -0.832035        -0.704898
 H         2.383357         2.887720         0.043622
 H         2.322930         1.855765        -1.489410
 H         0.781641         2.334798        -0.684124
 H         3.166446         1.474784         2.168106
 H         1.364581         1.350017         2.338389
 H         3.856259        -0.554194         2.990758
 H         0.767420        -2.099134         1.291013
 H         0.291747        -0.590551         2.312222
 H         0.132526        -0.300599        -0.451142
 H         3.364070        -1.675685        -1.073391
