19
Iteration:  2480charge 0 multiplicity 1
 C         1.874185         2.088969        -0.492933
 C         1.972870         0.898475         0.412062
 C         2.319561         1.039329         1.936379
 C         2.437726        -0.522110         1.805163
 O         3.031107        -1.271399         2.886397
 C         1.082991        -1.005775         1.480479
 C         1.182883        -0.472424         0.202831
 C         2.609783        -0.426191         0.106881
 O         3.344277        -0.750259        -0.963363
 H         1.684941         3.109652        -0.032554
 H         2.673694         2.160972        -1.243342
 H         0.981342         1.832236        -1.039106
 H         3.374103         1.393930         2.292774
 H         1.583473         1.466684         2.673908
 H         3.972007        -1.003018         2.921603
 H         0.914195        -2.123024         1.456557
 H         0.326573        -0.528336         2.216691
 H         0.398782        -0.517891        -0.542632
 H         3.092668        -1.629582        -1.130864
