19
Iteration:  4909charge 0 multiplicity 1
 C         1.706740         2.183791        -0.557079
 C         1.952526         0.990528         0.412101
 C         2.260719         1.034572         1.955774
 C         2.449679        -0.555039         1.769415
 O         3.106328        -1.510202         2.590147
 C         0.959301        -0.912412         1.606806
 C         1.183957        -0.420217         0.140267
 C         2.674720        -0.345326         0.130173
 O         3.514250        -0.865988        -0.731943
 H         0.653348         2.331094        -0.592775
 H         2.022884         3.188018        -0.202537
 H         2.066836         2.168575        -1.597858
 H         3.120789         1.718520         2.208844
 H         1.481247         1.184113         2.732867
 H         3.789944        -1.030257         3.135437
 H         0.662070        -1.926350         1.694896
 H         0.187357        -0.286427         2.167461
 H         0.591021        -0.449192        -0.699758
 H         4.018021        -1.584824        -0.323065
