19
Iteration:   871
 C         1.857543         2.056247        -0.671853
 C         1.934527         0.965672         0.357954
 C         2.454582         1.063809         1.821286
 C         2.408518        -0.535982         1.809934
 O         3.317930        -1.290755         2.659257
 C         0.943333        -0.911940         1.798755
 C         0.927941        -0.363575         0.403677
 C         2.497612        -0.391521         0.145781
 O         3.352241        -0.919503        -0.873862
 H         0.808987         2.155375        -0.963099
 H         2.243342         3.008586        -0.301051
 H         2.356040         1.771686        -1.685361
 H         3.469379         1.350656         1.942653
 H         1.765923         1.495554         2.612982
 H         4.295867        -1.205899         2.445644
 H         0.805587        -2.048230         1.665051
 H         0.155290        -0.637688         2.525926
 H         0.205152        -0.233390        -0.433389
 H         3.650008        -1.866850        -0.609584
