19
Iteration:   570
 C         1.856190         2.079449        -0.639154
 C         1.892015         0.925420         0.353936
 C         2.163624         1.090621         1.865859
 C         2.382044        -0.548510         1.837201
 O         3.352543        -1.193911         2.627600
 C         0.998284        -1.038468         1.640109
 C         1.036068        -0.450233         0.196218
 C         2.547251        -0.458573         0.193065
 O         3.444926        -0.959339        -0.727209
 H         0.845263         2.338693        -1.163209
 H         1.940662         2.972278         0.140439
 H         2.718334         2.209116        -1.304036
 H         3.104749         1.709580         2.066930
 H         1.420805         1.469426         2.572545
 H         3.881665        -0.619223         3.243535
 H         0.991910        -2.074196         1.436110
 H         0.279094        -0.843980         2.451260
 H         0.167397        -0.621970        -0.564243
 H         4.155555        -0.282528        -0.903633
