19
Iteration:  1676
 C         1.933478         1.943454        -0.660129
 C         1.899295         0.964472         0.400713
 C         2.613739         1.062625         1.843299
 C         2.532945        -0.536822         1.736140
 O         3.243286        -1.464104         2.536594
 C         1.031819        -0.934201         1.864799
 C         0.829826        -0.142967         0.386807
 C         2.409937        -0.440411         0.204286
 O         3.218528        -0.799557        -0.848778
 H         1.554697         2.928707        -0.474881
 H         2.924533         2.190457        -0.969055
 H         1.383734         1.625482        -1.546733
 H         3.629355         1.532703         1.694403
 H         2.146213         1.342336         2.716835
 H         4.147015        -1.098808         2.709198
 H         0.776329        -1.974860         1.682826
 H         0.406095        -0.545568         2.785908
 H         0.018657        -0.043919        -0.431179
 H         3.371531        -1.717531        -0.733942
