19
Iteration:  1143charge 0 multiplicity 1
 C         1.875483         2.038273        -0.640419
 C         1.942878         0.888836         0.363204
 C         2.542762         0.975290         1.785234
 C         2.479575        -0.494432         1.800417
 O         3.222559        -1.262483         2.678378
 C         1.005814        -0.906035         1.815524
 C         0.921854        -0.400620         0.360992
 C         2.438926        -0.474788         0.130136
 O         3.317269        -0.814408        -0.844219
 H         1.878836         1.667950        -1.695239
 H         1.011641         2.753518        -0.403338
 H         2.812286         2.682324        -0.466238
 H         3.583110         1.398725         1.774808
 H         2.082995         1.512624         2.558357
 H         4.179783        -1.243246         2.458097
 H         0.820948        -1.991402         2.032427
 H         0.366250        -0.227809         2.371648
 H        -0.017129        -0.282019        -0.310719
 H         2.922374        -1.545112        -1.292933
