19
Iteration:  3202charge 0 multiplicity 1
 C         1.800495         2.026294        -0.714127
 C         1.954472         0.985083         0.414775
 C         2.305347         0.906304         1.948858
 C         2.334571        -0.576007         1.867134
 O         3.322416        -1.230269         2.659001
 C         0.850391        -0.929060         1.492234
 C         1.034407        -0.336039         0.211857
 C         2.614143        -0.395995         0.285789
 O         3.516833        -0.745354        -0.706902
 H         2.724769         2.049931        -1.377855
 H         0.943539         1.860781        -1.402881
 H         1.596675         2.962366        -0.190012
 H         3.290426         1.210825         2.301404
 H         1.628580         1.396959         2.591289
 H         3.368093        -2.189957         2.396051
 H         0.809642        -2.087274         1.486803
 H        -0.006027        -0.671773         1.999958
 H         0.500334        -0.412139        -0.719695
 H         3.767547        -1.645752        -0.636595
