19
Iteration:  3416charge 0 multiplicity 1
 C         1.761166         2.112317        -0.598092
 C         2.023124         1.030278         0.405814
 C         2.324983         1.093477         1.872733
 C         2.361935        -0.517918         1.835140
 O         3.146921        -1.254358         2.739695
 C         0.947771        -1.110146         1.480526
 C         1.155910        -0.350863         0.198618
 C         2.579574        -0.340707         0.233432
 O         3.423169        -1.037195        -0.711955
 H         2.745400         2.390497        -1.096879
 H         0.957888         1.709640        -1.280847
 H         1.196064         2.996498        -0.265878
 H         3.302353         1.537271         2.099073
 H         1.572108         1.547401         2.477218
 H         4.093659        -1.014525         2.687562
 H         1.213715        -2.101311         1.242005
 H         0.125442        -1.338725         2.222436
 H         0.593681        -0.597559        -0.740135
 H         3.989980        -0.450869        -1.163162
