19
Iteration:   359
 C         1.657006         2.043396        -0.705948
 C         1.937591         0.947132         0.381437
 C         2.237722         1.021663         1.879115
 C         2.447311        -0.581627         1.784178
 O         3.306275        -1.127271         2.658148
 C         0.956530        -1.068457         1.615011
 C         1.108961        -0.382861         0.254256
 C         2.590559        -0.358246         0.190798
 O         3.514908        -0.879909        -0.676674
 H         1.294918         3.061982        -0.347618
 H         2.670643         2.253704        -1.172443
 H         1.075566         1.514761        -1.563840
 H         3.221767         1.576648         2.280073
 H         1.453579         1.329323         2.642263
 H         2.881132        -1.984824         2.931556
 H         0.970391        -2.185627         1.498484
 H         0.074751        -0.772399         2.168531
 H         0.403084        -0.589876        -0.627751
 H         4.365782        -0.518857        -0.544040
