19
Iteration:   815
 C         1.729798         2.176366        -0.512928
 C         1.981389         0.940068         0.348940
 C         2.493029         1.077847         1.748225
 C         2.447759        -0.494068         1.823277
 O         3.198921        -1.241973         2.708783
 C         1.018171        -1.053911         1.701832
 C         1.043079        -0.391502         0.330756
 C         2.526378        -0.375312         0.108261
 O         3.346715        -1.048140        -0.800114
 H         1.125452         3.022447        -0.155041
 H         2.615097         2.590142        -1.048525
 H         1.178816         1.730977        -1.445814
 H         3.586263         1.296077         1.701030
 H         2.051364         1.717786         2.534131
 H         3.875562        -0.780392         3.188303
 H         1.022564        -2.179636         1.601767
 H         0.342821        -0.450475         2.420240
 H         0.316306        -0.278603        -0.585754
 H         3.049676        -1.572549        -1.571113
