19
Iteration:  4666
 C         1.986496         2.172931        -0.562897
 C         1.847981         1.019339         0.438828
 C         2.216758         1.000952         1.957399
 C         2.343283        -0.570336         1.746123
 O         3.359812        -1.147290         2.604582
 C         0.925335        -1.236098         1.458581
 C         0.925085        -0.268105         0.191329
 C         2.457962        -0.424163         0.201051
 O         3.555076        -0.862770        -0.570196
 H         1.036291         2.526133        -1.038903
 H         2.487215         3.086864        -0.232223
 H         2.507091         1.859649        -1.498136
 H         3.164188         1.353589         2.122490
 H         1.497535         1.294087         2.732776
 H         3.972551        -1.568147         1.988225
 H         1.157683        -2.195230         1.176489
 H         0.139963        -1.304263         2.233137
 H         0.355602        -0.335776        -0.717113
 H         3.379922        -1.862434        -0.717560
