19
Iteration:  3786charge 0 multiplicity 1
 C         1.797326         2.088132        -0.562608
 C         1.987311         0.962416         0.403868
 C         2.241274         0.998478         1.906293
 C         2.333173        -0.611158         1.841052
 O         3.161257        -1.178025         2.770649
 C         0.945528        -1.118750         1.421755
 C         1.131084        -0.370962         0.148480
 C         2.601315        -0.390036         0.201668
 O         3.570084        -0.773991        -0.669056
 H         2.723402         2.652795        -0.825976
 H         1.413254         1.724103        -1.584774
 H         0.982804         2.743852        -0.137828
 H         3.264981         1.524300         1.984600
 H         1.506477         1.706268         2.331136
 H         3.861383        -1.723510         2.358275
 H         0.947342        -2.259510         1.422759
 H         0.235021        -0.884995         2.215390
 H         0.661601        -0.377914        -0.886183
 H         3.033970        -1.546902        -1.062030
