19
Iteration:  3978
 C         1.827651         2.188216        -0.534061
 C         2.021446         0.989073         0.367649
 C         2.068079         0.921997         1.928834
 C         2.320758        -0.556101         1.851653
 O         3.252791        -1.128707         2.765383
 C         0.979068        -1.155622         1.477849
 C         1.137741        -0.415143         0.106623
 C         2.631569        -0.431159         0.215320
 O         3.583392        -0.761876        -0.776802
 H         2.690217         2.835381        -0.431812
 H         1.865105         1.763028        -1.522555
 H         0.982288         2.837696        -0.335435
 H         2.979191         1.439077         2.196644
 H         1.129196         1.328858         2.492636
 H         3.030299        -2.028039         3.110376
 H         0.959550        -2.217366         1.276368
 H         0.069981        -0.887059         2.125733
 H         0.619929        -0.683084        -0.916506
 H         3.244449        -1.604278        -1.022033
