19
Iteration:  3406
 C         1.753852         2.070629        -0.627404
 C         1.918433         1.040695         0.401261
 C         2.282625         1.106339         1.880951
 C         2.382309        -0.478817         1.834184
 O         3.132530        -1.314707         2.625616
 C         1.049679        -1.117752         1.500985
 C         1.080513        -0.255473         0.252578
 C         2.618345        -0.403944         0.230233
 O         3.494071        -1.048673        -0.603721
 H         2.683609         2.392310        -1.229387
 H         1.257770         1.614876        -1.499514
 H         1.332269         2.987756        -0.187993
 H         3.296188         1.510816         2.091978
 H         1.573829         1.557654         2.572415
 H         4.081303        -1.078358         2.459201
 H         1.174216        -2.080188         1.118673
 H         0.128650        -0.909796         2.174909
 H         0.392913        -0.393842        -0.629216
 H         3.791217        -0.321832        -1.128549
