19
Iteration:  4979
 C         2.006253         2.136614        -0.490556
 C         1.774750         0.981140         0.400377
 C         2.259100         0.941502         1.925722
 C         2.385605        -0.541778         1.770759
 O         3.123394        -1.258891         2.767689
 C         0.981428        -1.217489         1.485170
 C         1.026648        -0.346809         0.183875
 C         2.525501        -0.379839         0.137962
 O         3.579333        -0.817587        -0.738208
 H         1.785751         3.109127         0.105210
 H         3.065520         2.345671        -0.853658
 H         1.425945         2.322483        -1.463860
 H         3.383685         1.413652         1.998011
 H         1.577878         1.236480         2.695821
 H         4.016414        -0.825400         2.671527
 H         1.038979        -2.318809         1.239392
 H         0.248490        -1.090312         2.235160
 H         0.229776        -0.378334        -0.662094
 H         3.238204        -0.461827        -1.634661
