19
Iteration:  3338charge 0 multiplicity 1
 C         1.901868         2.039154        -0.583187
 C         1.795955         0.950233         0.430711
 C         2.387809         1.031778         1.795146
 C         2.386138        -0.511470         1.810644
 O         3.260854        -1.306430         2.513890
 C         0.874300        -0.965123         1.567879
 C         0.937591        -0.367708         0.218692
 C         2.452881        -0.460600         0.204940
 O         3.623362        -0.763854        -0.466577
 H         2.583389         2.845032        -0.316912
 H         2.486078         1.614041        -1.392863
 H         0.937908         2.484281        -0.865595
 H         3.384415         1.434961         1.750509
 H         1.817617         1.534445         2.549226
 H         3.782352        -1.803014         1.878178
 H         0.827907        -2.006933         1.679102
 H         0.059088        -0.508483         2.173289
 H         0.352826        -0.579990        -0.646533
 H         3.552448        -1.463010        -1.136138
