19
Iteration:  2854charge 0 multiplicity 1
 C         1.849031         2.096763        -0.418158
 C         1.905065         0.948110         0.450397
 C         2.318868         0.930807         1.883206
 C         2.352873        -0.583352         1.784002
 O         3.172824        -1.085243         2.847468
 C         0.934583        -1.092145         1.490204
 C         1.143614        -0.303927         0.148566
 C         2.648373        -0.325645         0.095176
 O         3.401469        -0.993863        -0.880521
 H         2.861957         2.637349        -0.417939
 H         1.622206         1.770274        -1.468804
 H         0.978249         2.768766        -0.189429
 H         3.355085         1.269115         2.107389
 H         1.605627         1.482535         2.548245
 H         3.700176        -1.835533         2.564115
 H         0.852321        -2.201025         1.453726
 H         0.080633        -0.725913         2.102752
 H         0.457359        -0.399942        -0.740139
 H         4.234454        -0.530259        -0.875772
