19
Iteration:  4899
 C         1.691901         2.230245        -0.573795
 C         1.999199         1.008020         0.347651
 C         2.287899         1.016507         1.996126
 C         2.455247        -0.544599         1.775417
 O         3.128332        -1.490579         2.582830
 C         0.973313        -0.957815         1.522169
 C         1.083464        -0.369311         0.138393
 C         2.562643        -0.391999         0.251879
 O         3.574087        -0.855301        -0.683086
 H         0.615449         2.301218        -0.728203
 H         2.015215         3.139912        -0.000105
 H         2.115214         2.141261        -1.601180
 H         3.289165         1.551851         1.949346
 H         1.514088         1.478152         2.609078
 H         3.938677        -1.006748         2.927522
 H         0.850507        -2.026541         1.520066
 H         0.292349        -0.511942         2.269404
 H         0.514542        -0.604121        -0.678774
 H         3.745659        -1.811420        -0.407571
