19
Iteration:  4470charge 0 multiplicity 1
 C         1.828989         2.114657        -0.636640
 C         1.927333         1.039647         0.440639
 C         2.097537         0.971251         1.966807
 C         2.429331        -0.564760         1.768384
 O         3.313584        -1.369633         2.515102
 C         0.950105        -1.103726         1.384673
 C         1.051503        -0.325096         0.210362
 C         2.532119        -0.261214         0.217158
 O         3.592635        -0.851111        -0.380406
 H         1.744593         3.149807        -0.576511
 H         2.594745         1.909504        -1.315916
 H         0.996655         1.780694        -1.249069
 H         2.881811         1.518184         2.459692
 H         1.153149         1.269819         2.521650
 H         4.081671        -1.159504         1.968929
 H         1.226121        -2.086222         1.353688
 H         0.170403        -0.994648         2.204490
 H         0.301019        -0.178175        -0.626548
 H         3.326836        -1.110811        -1.341748
