19
Iteration:  3622charge 0 multiplicity 1
 C         1.753487         2.171207        -0.576057
 C         1.901571         0.952676         0.382059
 C         2.311049         0.998299         1.828432
 C         2.394669        -0.533768         1.845510
 O         3.147763        -1.182546         2.933307
 C         0.968175        -0.995642         1.471533
 C         1.137812        -0.398113         0.143022
 C         2.652373        -0.484846         0.201974
 O         3.565063        -0.915811        -0.813211
 H         2.669584         2.570319        -0.891796
 H         1.195640         1.910476        -1.469704
 H         1.108165         2.886763        -0.127700
 H         3.239703         1.464776         2.219300
 H         1.593031         1.337785         2.662085
 H         3.848158        -1.734784         2.581157
 H         0.744269        -2.085369         1.388662
 H         0.140535        -0.700948         2.137182
 H         0.389289        -0.599687        -0.581454
 H         3.017169        -0.975507        -1.633023
