19
Iteration:  1333charge 0 multiplicity 1
 C         1.875131         2.037021        -0.666320
 C         1.890399         0.927705         0.364438
 C         2.515800         1.031553         1.802263
 C         2.480540        -0.498266         1.956434
 O         3.223206        -1.367566         2.699260
 C         1.013111        -0.959948         1.738933
 C         0.974389        -0.275736         0.360244
 C         2.461384        -0.444017         0.174287
 O         3.306701        -0.828295        -0.911203
 H         2.331561         1.935326        -1.674251
 H         0.838520         2.362053        -0.869768
 H         2.194535         3.007541        -0.308219
 H         3.583148         1.330109         1.453184
 H         2.259004         1.712939         2.575312
 H         4.149218        -1.112332         2.758798
 H         0.904114        -2.031207         1.598929
 H         0.215385        -0.629099         2.311518
 H         0.216040        -0.430814        -0.467219
 H         3.065807        -1.815858        -0.992258
