19
Iteration:  4774
 C         1.748572         2.118716        -0.551174
 C         1.900270         0.935309         0.453061
 C         2.412810         0.876136         1.809156
 C         2.368076        -0.687503         1.824603
 O         3.231045        -1.133047         2.833562
 C         0.906493        -1.162022         1.428514
 C         1.016484        -0.298341         0.160488
 C         2.521957        -0.324164         0.121409
 O         3.613043        -0.689355        -0.761760
 H         1.265101         2.979998        -0.067319
 H         2.736795         2.234913        -0.921507
 H         1.224860         1.727148        -1.402555
 H         3.411385         1.256511         1.662737
 H         1.889189         1.403622         2.737206
 H         2.780438        -1.925240         3.231480
 H         0.993604        -2.247820         1.070062
 H         0.051489        -1.099421         2.202216
 H         0.410530        -0.319472        -0.786355
 H         4.011732        -1.317668        -0.073904
