19
Iteration:   168charge 0 multiplicity 1
 C         1.772993         2.066198        -0.615480
 C         1.879093         0.942615         0.394993
 C         2.373148         1.047148         1.856223
 C         2.482883        -0.438252         1.793674
 O         3.185455        -1.250874         2.647478
 C         1.050477        -1.084910         1.585129
 C         0.956321        -0.394515         0.252868
 C         2.511979        -0.383767         0.185023
 O         3.444178        -0.923633        -0.718083
 H         1.436191         1.585927        -1.562037
 H         1.105109         2.933351        -0.448585
 H         2.777261         2.460175        -0.800918
 H         3.365136         1.448607         1.752477
 H         1.811619         1.462047         2.744878
 H         3.921109        -0.849698         3.105909
 H         1.062563        -2.167482         1.456584
 H         0.227363        -0.778891         2.238142
 H         0.254044        -0.484132        -0.652347
 H         4.404831        -0.860040        -0.380718
