19
Iteration:  3607charge 0 multiplicity 1
 C         1.743438         2.145892        -0.532565
 C         1.987691         0.882679         0.253695
 C         2.315413         0.980850         1.769831
 C         2.398538        -0.637328         1.807199
 O         3.141370        -1.160499         2.874002
 C         0.882288        -1.058733         1.609946
 C         1.040035        -0.333497         0.223718
 C         2.567424        -0.406785         0.120840
 O         3.657202        -0.898877        -0.694579
 H         2.699562         2.688298        -0.688421
 H         1.177009         2.057307        -1.484336
 H         1.218984         2.893187         0.121858
 H         3.306711         1.395418         1.729536
 H         1.643409         1.586656         2.317633
 H         3.945988        -1.570578         2.468300
 H         0.771350        -2.187185         1.522086
 H         0.137070        -0.714773         2.328246
 H         0.447639        -0.359530        -0.774115
 H         3.432979        -0.704401        -1.675771
