19
Iteration:  2826charge 0 multiplicity 1
 C         1.848953         2.110918        -0.603497
 C         1.986652         0.994377         0.384899
 C         2.199016         0.998669         1.955562
 C         2.386994        -0.572682         1.821460
 O         3.349905        -1.240117         2.656297
 C         0.868146        -1.017638         1.551835
 C         1.159697        -0.297362         0.151542
 C         2.576699        -0.443297         0.219350
 O         3.387120        -0.935805        -0.728184
 H         2.478693         2.895423        -0.304107
 H         2.184728         1.837134        -1.607052
 H         0.842180         2.556470        -0.585755
 H         3.048382         1.470125         2.413730
 H         1.283183         1.346539         2.436971
 H         3.292862        -2.185443         2.460834
 H         0.856576        -2.095981         1.646620
 H        -0.031005        -0.705774         2.134860
 H         0.661556        -0.334340        -0.825706
 H         4.052219        -0.231880        -0.638887
