19
Iteration:  1227
 C         1.876959         2.234899        -0.476199
 C         1.872909         0.902146         0.268176
 C         2.378836         1.058173         1.764633
 C         2.454258        -0.602737         1.713836
 O         3.411105        -1.242800         2.648759
 C         0.923692        -0.922746         1.763125
 C         0.975234        -0.329210         0.287657
 C         2.531496        -0.433511         0.150801
 O         3.328021        -1.084336        -0.767212
 H         0.929061         2.356875        -1.014000
 H         1.827464         3.056865         0.209876
 H         2.748667         2.170463        -1.107357
 H         3.268409         1.482218         1.473812
 H         1.625131         1.535986         2.529599
 H         4.114226        -0.590115         2.566832
 H         0.640864        -1.933338         1.607093
 H         0.157056        -0.427740         2.466852
 H         0.019387        -0.240359        -0.310148
 H         3.457944        -2.055426        -0.443211
