19
Iteration:    50charge 0 multiplicity 1
 C         1.770876         1.992334        -0.572166
 C         1.866974         0.960330         0.417938
 C         2.362601         1.099731         1.839239
 C         2.501537        -0.548345         1.775940
 O         3.310579        -1.199648         2.635096
 C         0.988393        -1.039600         1.583050
 C         1.021348        -0.308861         0.220413
 C         2.522644        -0.381230         0.196124
 O         3.431745        -0.920336        -0.758531
 H         2.338817         1.715254        -1.479040
 H         0.747597         2.175887        -0.980196
 H         2.046383         3.036085        -0.251501
 H         3.278026         1.781902         1.883271
 H         1.664894         1.428272         2.644284
 H         2.835712        -1.701714         3.344465
 H         0.801493        -2.149165         1.412996
 H         0.186726        -0.939171         2.424258
 H         0.432246        -0.491442        -0.675007
 H         4.155432        -1.207935        -0.128200
