19
Iteration:  3382charge 0 multiplicity 1
 C         1.814902         2.064940        -0.665282
 C         1.884871         1.018318         0.342561
 C         2.285412         1.006535         1.879198
 C         2.421787        -0.548439         1.720112
 O         3.272966        -1.409975         2.509623
 C         0.880052        -0.914654         1.662641
 C         0.949785        -0.355327         0.206994
 C         2.505145        -0.344899         0.143823
 O         3.634082        -0.917431        -0.375758
 H         2.787559         2.552712        -0.926547
 H         1.596847         1.555915        -1.638646
 H         1.155438         2.899543        -0.381511
 H         3.171524         1.583227         2.102450
 H         1.517905         1.266989         2.572283
 H         4.190672        -1.220724         2.269057
 H         0.797272        -1.967049         1.509697
 H         0.212946        -0.475436         2.461085
 H         0.166553        -0.482713        -0.554336
 H         3.760396        -0.584638        -1.270795
