19
Iteration:  2735
 C         1.838775         2.045475        -0.512738
 C         1.961972         0.950865         0.425222
 C         2.208022         0.968130         1.879821
 C         2.453111        -0.559158         1.716761
 O         3.234423        -1.239869         2.739438
 C         0.951099        -0.973690         1.547253
 C         1.021671        -0.319488         0.194968
 C         2.579482        -0.387528         0.134240
 O         3.552022        -0.803821        -0.737431
 H         2.445120         2.996891        -0.337055
 H         2.182857         1.674107        -1.513661
 H         0.734335         2.339743        -0.570790
 H         3.104961         1.572843         2.042707
 H         1.386536         1.375634         2.463912
 H         3.307124        -2.221788         2.663573
 H         0.742672        -2.022893         1.603375
 H         0.194787        -0.560819         2.320092
 H         0.307521        -0.353305        -0.602829
 H         3.622265        -1.770620        -0.971325
