19
Iteration:  1691charge 0 multiplicity 1
 C         2.008788         2.031250        -0.662225
 C         1.864664         0.958826         0.431759
 C         2.613224         1.016725         1.799858
 C         2.475754        -0.491313         1.887223
 O         3.257994        -1.426362         2.577680
 C         1.027921        -0.904056         1.748055
 C         0.866175        -0.298408         0.436811
 C         2.314245        -0.440607         0.133764
 O         3.228548        -0.789285        -0.862488
 H         1.817233         3.037506        -0.157254
 H         3.074081         1.891552        -1.074311
 H         1.271725         1.951661        -1.502661
 H         3.637909         1.180543         1.564427
 H         2.308886         1.839145         2.529295
 H         4.206505        -1.109296         2.657065
 H         1.202854        -2.003938         1.685717
 H         0.397295        -0.673367         2.568128
 H        -0.012711        -0.393415        -0.105806
 H         3.018354        -1.722382        -1.157785
