19
Iteration:  3271
 C         1.873928         2.140188        -0.448990
 C         1.990344         0.881251         0.402228
 C         2.316250         0.903150         1.884478
 C         2.383426        -0.534340         1.863501
 O         3.162767        -1.051586         2.943965
 C         1.003309        -1.084402         1.467333
 C         1.154038        -0.429346         0.156949
 C         2.640479        -0.376760         0.114946
 O         3.381668        -0.826630        -1.023709
 H         2.720046         2.796084        -0.243160
 H         2.125259         1.965547        -1.518476
 H         0.923369         2.571519        -0.141252
 H         3.246358         1.370328         2.076385
 H         1.542709         1.324905         2.492383
 H         2.603137        -1.688272         3.443571
 H         1.006494        -2.173407         1.523585
 H         0.154232        -0.779185         2.073167
 H         0.578261        -0.670737        -0.748528
 H         2.827295        -1.634115        -1.216413
