19
Iteration:  2690
 C         1.812166         2.203077        -0.542929
 C         1.983288         0.988129         0.320775
 C         2.304819         0.939767         1.855348
 C         2.400023        -0.649305         1.809153
 O         3.198789        -1.068894         2.882997
 C         1.000896        -1.237348         1.425250
 C         1.120934        -0.380735         0.146718
 C         2.618599        -0.320875         0.247506
 O         3.427965        -0.875098        -0.744890
 H         2.862001         2.551978        -0.967250
 H         1.258619         2.005701        -1.520412
 H         1.276541         3.025033         0.014580
 H         3.322144         1.244208         2.182250
 H         1.663021         1.404440         2.599031
 H         3.087301        -2.071491         2.915537
 H         0.797495        -2.286920         1.287998
 H         0.187325        -0.883755         2.221716
 H         0.616761        -0.567643        -0.779213
 H         2.791709        -0.806816        -1.542492
