19
Iteration:  1715charge 0 multiplicity 1
 C         2.008076         2.133358        -0.596590
 C         1.934834         0.895458         0.371986
 C         2.551961         0.945836         1.828161
 C         2.482863        -0.616471         1.762549
 O         3.330182        -1.226835         2.668093
 C         0.920338        -0.946316         1.853246
 C         0.922384        -0.276441         0.302169
 C         2.414388        -0.489133         0.175881
 O         3.158624        -0.838508        -0.929582
 H         2.205149         2.928805         0.198621
 H         2.903691         1.774188        -1.212726
 H         1.089942         2.380407        -1.194816
 H         3.619674         1.112803         1.860546
 H         2.022847         1.627721         2.640632
 H         4.263782        -1.109884         2.607199
 H         0.740427        -2.035871         1.939226
 H         0.470680        -0.424098         2.648080
 H         0.232006        -0.426102        -0.530671
 H         2.574498        -1.521288        -1.391836
