19
Iteration:  3741
 C         1.821117         2.022817        -0.734556
 C         1.897497         1.041819         0.376227
 C         2.227579         1.005176         1.838513
 C         2.363330        -0.576074         1.764066
 O         3.204563        -1.464810         2.564173
 C         0.938451        -1.025474         1.674398
 C         1.072220        -0.331636         0.186838
 C         2.551772        -0.361033         0.224945
 O         3.607354        -0.674615        -0.517385
 H         2.555403         2.839575        -0.526717
 H         2.246431         1.551577        -1.696224
 H         0.791602         2.461493        -0.928105
 H         3.233370         1.415995         2.129208
 H         1.453723         1.311775         2.546543
 H         3.992736        -0.906415         2.795913
 H         0.705241        -2.136163         1.550035
 H         0.220975        -0.682933         2.378570
 H         0.401931        -0.221033        -0.616843
 H         3.716526        -1.692048        -0.588669
