19
Iteration:   231charge 0 multiplicity 1
 C         1.824494         2.077006        -0.594838
 C         1.905159         0.974235         0.394151
 C         2.271980         1.017274         1.881466
 C         2.400585        -0.486201         1.805039
 O         3.314989        -1.161216         2.634385
 C         0.981288        -1.144419         1.618514
 C         1.033903        -0.431489         0.208127
 C         2.472531        -0.399881         0.105440
 O         3.530449        -0.879106        -0.684349
 H         0.908174         2.000778        -1.216879
 H         1.949264         3.053996        -0.103853
 H         2.626622         1.926552        -1.253192
 H         3.219864         1.477808         1.959153
 H         1.624220         1.611568         2.509611
 H         3.477070        -0.652779         3.423455
 H         0.915133        -2.180788         1.732870
 H         0.301952        -0.694483         2.390901
 H         0.328070        -0.448279        -0.732722
 H         3.221281        -1.710984        -1.172125
