19
Iteration:  3987
 C         1.860524         2.182907        -0.497084
 C         1.964724         0.931812         0.372753
 C         2.083059         0.921113         1.872149
 C         2.371291        -0.578657         1.832557
 O         3.266934        -1.107932         2.793533
 C         0.966612        -1.175132         1.435450
 C         1.149004        -0.394947         0.090833
 C         2.707675        -0.325733         0.247477
 O         3.501060        -0.800803        -0.771335
 H         2.830446         2.805130        -0.496419
 H         1.612437         1.814035        -1.530000
 H         0.913261         2.819011        -0.204823
 H         2.877311         1.382731         2.407236
 H         1.119899         1.083085         2.418308
 H         2.635680        -1.727052         3.234486
 H         1.000780        -2.212679         1.296477
 H         0.113736        -0.849013         2.193276
 H         0.972500        -0.712968        -0.956740
 H         3.187376        -1.569445        -1.210227
