19
Iteration:  3110charge 0 multiplicity 1
 C         1.857801         2.075872        -0.525474
 C         1.940742         0.916255         0.435779
 C         2.296726         0.913407         1.922586
 C         2.392148        -0.601593         1.776721
 O         3.203961        -1.213918         2.760934
 C         0.901915        -0.995430         1.570176
 C         1.020885        -0.277726         0.156700
 C         2.571129        -0.527943         0.131846
 O         3.538836        -0.767008        -0.876984
 H         2.759238         2.657544        -0.640246
 H         1.556951         1.815489        -1.569047
 H         1.025636         2.731897        -0.193920
 H         3.252065         1.423735         2.193869
 H         1.585396         1.308431         2.701253
 H         3.749012        -0.470847         3.037147
 H         0.795161        -2.039641         1.633897
 H         0.182364        -0.601632         2.351157
 H         0.461554        -0.405704        -0.825339
 H         3.744327        -1.743189        -0.703520
