19
Iteration:  4390
 C         1.701681         2.166739        -0.438342
 C         1.874474         0.932048         0.367776
 C         2.264041         0.872391         1.794891
 C         2.339499        -0.610375         1.786312
 O         3.034586        -1.236410         2.810750
 C         0.991708        -1.173415         1.434091
 C         1.116689        -0.353683         0.175355
 C         2.644900        -0.396242         0.127854
 O         3.738965        -0.676631        -0.687755
 H         2.673425         2.770449        -0.431460
 H         1.609219         2.044663        -1.488385
 H         0.899634         2.856036        -0.222023
 H         3.241642         1.316204         1.890026
 H         1.627496         1.354215         2.551734
 H         3.895569        -0.812191         2.921489
 H         1.111366        -2.249172         1.135496
 H         0.270478        -0.990118         2.205196
 H         0.363526        -0.335964        -0.612130
 H         3.507385        -1.576545        -1.132889
