19
Iteration:  1460
 C         1.916260         1.950907        -0.704331
 C         1.909935         0.910364         0.373509
 C         2.478429         0.984318         1.846014
 C         2.441469        -0.561838         1.824771
 O         3.370635        -1.400860         2.495310
 C         0.951839        -0.839127         1.837278
 C         0.928770        -0.210076         0.394803
 C         2.395267        -0.486717         0.158825
 O         3.309907        -0.781367        -0.711428
 H         1.955936         2.992356        -0.271959
 H         2.751963         1.819576        -1.456575
 H         0.892523         2.059654        -1.177206
 H         3.474702         1.297005         1.671332
 H         2.029199         1.684608         2.664734
 H         4.239614        -1.272605         2.077602
 H         0.642071        -1.943550         1.848579
 H         0.520594        -0.143052         2.714993
 H         0.050552        -0.071939        -0.250573
 H         3.058665        -1.469964        -1.375648
