19
Iteration:   389charge 0 multiplicity 1
 C         1.759749         2.046996        -0.613795
 C         1.881466         0.920142         0.319757
 C         2.095828         1.060986         1.920664
 C         2.417165        -0.552351         1.861205
 O         3.402001        -1.173718         2.670856
 C         1.032724        -1.058488         1.522519
 C         1.104353        -0.349379         0.168764
 C         2.611767        -0.381621         0.261416
 O         3.413480        -0.952983        -0.706230
 H         1.618464         3.015097        -0.207455
 H         2.656025         2.105083        -1.218659
 H         0.908675         1.984911        -1.376637
 H         3.054786         1.604489         2.036497
 H         1.308665         1.438976         2.537041
 H         3.224587        -1.024745         3.603789
 H         1.255514        -2.173368         1.265415
 H         0.049342        -0.958604         2.028169
 H         0.542857        -0.731809        -0.778549
 H         4.272010        -0.455913        -0.853672
