19
Iteration:  2589
 C         1.783670         2.050195        -0.631494
 C         1.999474         0.968417         0.435113
 C         2.238232         0.963286         1.942282
 C         2.340896        -0.581615         1.784306
 O         3.213980        -1.283484         2.498041
 C         0.969277        -1.023521         1.498639
 C         0.962885        -0.271290         0.252382
 C         2.565819        -0.354625         0.204179
 O         3.644460        -0.786343        -0.488640
 H         2.867363         2.299679        -1.062747
 H         1.292910         1.502023        -1.497802
 H         1.255982         3.020990        -0.459962
 H         3.236313         1.362780         2.164421
 H         1.380984         1.349262         2.470446
 H         3.831062        -1.538093         1.804616
 H         0.891068        -2.165944         1.465870
 H         0.228799        -0.727582         2.380195
 H         0.251078        -0.315356        -0.600114
 H         3.483466        -1.655756        -0.874453
