19
Iteration:  4260
 C         1.719813         2.020265        -0.634734
 C         1.945993         0.898150         0.358758
 C         2.111025         0.939265         1.973062
 C         2.448973        -0.539643         1.726586
 O         3.174864        -1.340616         2.590824
 C         0.962435        -1.003451         1.529503
 C         1.115105        -0.411357         0.105098
 C         2.619198        -0.334434         0.248768
 O         3.707466        -0.597109        -0.498157
 H         2.582179         2.322360        -1.241654
 H         0.921306         1.844119        -1.267155
 H         1.560424         2.880221        -0.036235
 H         2.975285         1.573765         2.212093
 H         1.152663         1.210265         2.620650
 H         3.371747        -2.171072         2.110677
 H         0.587605        -2.012633         1.471332
 H         0.170281        -0.464728         2.210929
 H         0.562562        -0.429793        -0.754510
 H         3.713513        -1.548068        -0.731951
