19
Iteration:  4130
 C         1.861256         2.029439        -0.649794
 C         1.826172         1.010240         0.470869
 C         2.194084         0.957414         1.957247
 C         2.319972        -0.571324         1.804771
 O         3.262501        -1.263889         2.608306
 C         0.992726        -1.180118         1.421592
 C         1.033185        -0.331618         0.157361
 C         2.489637        -0.325955         0.171504
 O         3.702716        -0.642098        -0.586281
 H         2.372174         3.029813        -0.400651
 H         2.542931         1.501583        -1.352090
 H         0.800057         2.031058        -1.126728
 H         3.151181         1.365017         2.063656
 H         1.640376         1.279070         2.808216
 H         2.898581        -1.871169         3.289290
 H         1.112937        -2.187645         1.264713
 H         0.201516        -0.951946         2.220011
 H         0.265749        -0.140667        -0.627976
 H         3.745242        -1.584249        -0.738829
