19
Iteration:  4265charge 0 multiplicity 1
 C         1.768360         2.029866        -0.626513
 C         1.918491         0.898496         0.337011
 C         2.086547         0.978785         1.966961
 C         2.441986        -0.567656         1.772958
 O         3.250575        -1.344307         2.568118
 C         0.914576        -0.986972         1.529555
 C         1.104986        -0.475449         0.086592
 C         2.568829        -0.380715         0.225234
 O         3.725137        -0.569308        -0.452332
 H         2.583056         2.364954        -1.298162
 H         0.834650         1.967627        -1.358903
 H         1.614825         3.005772         0.004174
 H         2.978667         1.560137         2.226017
 H         1.314706         1.276465         2.597179
 H         3.263595        -2.224453         2.155191
 H         0.567957        -2.052514         1.429827
 H         0.256665        -0.439594         2.187227
 H         0.366492        -0.246147        -0.785071
 H         3.749918        -1.527316        -0.748651
