19
Iteration:   586charge 0 multiplicity 1
 C         1.836914         2.108052        -0.608035
 C         1.918166         0.968744         0.371477
 C         2.206301         0.933784         1.869395
 C         2.451279        -0.489031         1.767882
 O         3.267374        -1.133949         2.678454
 C         1.060915        -1.126473         1.606295
 C         1.069974        -0.388520         0.269298
 C         2.586621        -0.364590         0.190067
 O         3.328652        -0.979218        -0.777743
 H         1.064782         1.931809        -1.311710
 H         1.701540         3.109825        -0.322416
 H         2.732240         2.057519        -1.290094
 H         3.086840         1.461451         2.173891
 H         1.282616         1.259772         2.500930
 H         3.650145        -0.456822         3.284154
 H         1.086640        -2.264968         1.665387
 H         0.247702        -0.855724         2.279388
 H         0.543284        -0.513711        -0.600834
 H         4.272247        -0.611788        -0.636216
