19
Iteration:  4294charge 0 multiplicity 1
 C         1.900195         2.064920        -0.541637
 C         1.740720         0.893783         0.349019
 C         2.221660         0.945545         1.855758
 C         2.343028        -0.586844         1.783023
 O         3.303616        -1.182817         2.488491
 C         0.820392        -1.195317         1.490598
 C         1.000649        -0.429104         0.145191
 C         2.542233        -0.368019         0.250989
 O         3.752098        -0.546035        -0.453304
 H         2.827993         1.988110        -1.081569
 H         1.129581         2.214331        -1.270719
 H         1.905013         3.001486         0.044516
 H         3.272632         1.209017         1.751994
 H         1.799621         1.613087         2.721707
 H         2.957070        -1.967726         2.926314
 H         0.796305        -2.182923         1.157496
 H        -0.027763        -0.921105         2.254366
 H         0.562524        -0.594495        -0.800479
 H         3.836722        -1.565363        -0.505691
