19
Iteration:  2243charge 0 multiplicity 1
 C         1.953176         2.015109        -0.694736
 C         1.935006         0.972034         0.376217
 C         2.405526         0.924755         1.948657
 C         2.373222        -0.608161         1.795321
 O         3.339039        -1.289858         2.620370
 C         0.881998        -1.024420         1.659214
 C         0.901297        -0.130727         0.332675
 C         2.475540        -0.430379         0.174444
 O         3.426585        -0.814864        -0.783600
 H         2.513090         1.758076        -1.589347
 H         0.924332         2.258706        -0.963288
 H         2.423875         2.923716        -0.352962
 H         3.343902         1.397961         2.126566
 H         1.598987         1.288163         2.642246
 H         4.134241        -0.765828         2.724717
 H         0.833134        -2.037070         1.309628
 H         0.143780        -0.815127         2.473051
 H         0.078593        -0.096889        -0.350973
 H         3.417748        -1.836956        -0.756628
