19
Iteration:  4898charge 0 multiplicity 1
 C         1.685920         2.233867        -0.570783
 C         1.998284         1.006113         0.341339
 C         2.297634         1.011333         1.984768
 C         2.447855        -0.543785         1.780940
 O         3.132664        -1.484131         2.581927
 C         0.973457        -0.965328         1.511194
 C         1.074718        -0.360637         0.141336
 C         2.555317        -0.393630         0.260637
 O         3.580100        -0.853071        -0.677641
 H         0.632664         2.281149        -0.729287
 H         2.041186         3.116553        -0.011389
 H         2.149857         2.134192        -1.573496
 H         3.271923         1.522776         1.973040
 H         1.522300         1.518023         2.614637
 H         3.958227        -1.029338         2.914101
 H         0.893630        -2.030377         1.503100
 H         0.284155        -0.520465         2.294026
 H         0.500627        -0.601706        -0.682035
 H         3.716142        -1.839821        -0.415034
