19
Iteration:  3312charge 0 multiplicity 1
 C         1.886158         2.083368        -0.702452
 C         1.971846         0.983976         0.327837
 C         2.271758         0.939022         1.924929
 C         2.404397        -0.583589         1.853757
 O         3.241195        -1.252778         2.735312
 C         0.943619        -1.058564         1.600727
 C         1.002194        -0.262890         0.258532
 C         2.575873        -0.266633         0.169716
 O         3.476858        -0.831040        -0.743674
 H         2.288579         3.062712        -0.333087
 H         2.497597         1.828713        -1.607294
 H         0.853883         2.410226        -0.844914
 H         3.210434         1.378038         2.291660
 H         1.434698         1.168244         2.625706
 H         3.444364        -2.124854         2.397629
 H         0.909660        -2.197093         1.276958
 H         0.167598        -0.866636         2.306007
 H         0.395594        -0.482211        -0.659070
 H         3.414328        -1.822140        -0.757239
