19
Iteration:  1248
 C         1.956288         2.178789        -0.576410
 C         1.840899         0.921665         0.347800
 C         2.492026         0.992991         1.735809
 C         2.462337        -0.457476         1.785688
 O         3.258181        -1.218045         2.516435
 C         1.071420        -0.943481         1.771965
 C         0.847810        -0.387768         0.305421
 C         2.358975        -0.486556         0.184293
 O         3.380089        -0.934123        -0.692560
 H         1.075302         2.153242        -1.208563
 H         1.818174         2.939688         0.164180
 H         2.909600         2.020560        -1.007695
 H         3.536675         1.238745         1.765747
 H         1.819884         1.439477         2.489943
 H         4.188444        -0.986237         2.467522
 H         1.261073        -2.019709         1.695342
 H         0.185826        -0.694222         2.559256
 H         0.066707        -0.590801        -0.463762
 H         3.332373        -1.863868        -0.550699
