19
Iteration:  4016charge 0 multiplicity 1
 C         1.853081         2.229212        -0.417409
 C         1.855662         0.958539         0.421175
 C         2.082543         0.976732         1.912793
 C         2.363557        -0.514421         1.861219
 O         3.178786        -1.160740         2.824389
 C         1.111843        -1.226141         1.357782
 C         1.141891        -0.399575         0.057399
 C         2.649275        -0.341355         0.159756
 O         3.557599        -0.900948        -0.807918
 H         2.858554         2.485145        -0.796851
 H         1.404259         1.985779        -1.405687
 H         1.298314         3.109773        -0.112780
 H         3.040479         1.458327         2.268757
 H         1.306076         1.325321         2.560661
 H         2.897870        -0.723322         3.669831
 H         1.391487        -2.316516         1.179461
 H         0.276203        -1.264407         2.004798
 H         0.637835        -0.527459        -0.830777
 H         3.190743        -1.721268        -1.278014
