19
Iteration:  2375charge 0 multiplicity 1
 C         1.899448         2.230309        -0.672032
 C         1.950083         0.971074         0.337796
 C         2.222515         1.007442         1.914473
 C         2.462805        -0.505800         1.753063
 O         3.264112        -1.436110         2.436957
 C         0.999123        -0.989817         1.654075
 C         1.012318        -0.322539         0.327503
 C         2.484651        -0.412656         0.225962
 O         3.432843        -0.913107        -0.616780
 H         0.890388         2.447255        -1.034620
 H         2.220513         3.143176        -0.090257
 H         2.600024         2.220144        -1.588794
 H         3.039025         1.576330         2.061859
 H         1.383167         1.247441         2.521976
 H         4.102721        -1.059458         2.750902
 H         0.726225        -2.041193         1.549080
 H         0.361228        -0.478273         2.374462
 H         0.175586        -0.550304        -0.416721
 H         3.749488        -1.645212         0.005648
