19
Iteration:  3984
 C         1.846313         2.193903        -0.508601
 C         1.993671         0.952698         0.366842
 C         2.067594         0.915424         1.891740
 C         2.346894        -0.560169         1.844190
 O         3.268656        -1.115241         2.785343
 C         0.964775        -1.166255         1.459770
 C         1.131934        -0.405679         0.084214
 C         2.690000        -0.366475         0.235689
 O         3.527772        -0.784575        -0.774077
 H         2.803312         2.828055        -0.453453
 H         1.682910         1.716037        -1.521047
 H         0.926843         2.860638        -0.249776
 H         2.961608         1.391263         2.369946
 H         1.173063         1.125045         2.395402
 H         2.742707        -1.825631         3.186643
 H         0.986413        -2.261149         1.263241
 H         0.157094        -0.859220         2.143939
 H         0.938087        -0.698533        -0.884962
 H         3.175369        -1.610083        -1.159694
