19
Iteration:  1470
 C         1.921726         2.008944        -0.745407
 C         1.909556         0.980492         0.440797
 C         2.550769         0.940970         1.789634
 C         2.439485        -0.553727         1.784206
 O         3.359837        -1.382262         2.484932
 C         0.907488        -0.788195         1.863126
 C         0.908020        -0.319335         0.404876
 C         2.348192        -0.554088         0.269702
 O         3.326027        -0.715476        -0.775023
 H         1.939207         3.019611        -0.263392
 H         2.883050         1.879792        -1.308505
 H         1.060614         1.777161        -1.434215
 H         3.582446         1.122050         1.862634
 H         2.022062         1.370238         2.719173
 H         4.236120        -1.248431         2.035475
 H         0.655209        -1.845296         2.048048
 H         0.315816        -0.177213         2.566361
 H         0.127613        -0.339685        -0.316204
 H         3.146921        -1.556753        -1.196324
