19
Iteration:  3756
 C         1.799110         2.008497        -0.758749
 C         1.887361         0.955759         0.429601
 C         2.261604         0.949278         2.018450
 C         2.388841        -0.573723         1.798694
 O         3.139526        -1.328191         2.625171
 C         0.947464        -1.045631         1.493992
 C         0.998015        -0.215941         0.208008
 C         2.572040        -0.332143         0.246014
 O         3.678724        -0.754412        -0.620549
 H         2.546093         2.790644        -0.775293
 H         1.879951         1.474676        -1.669533
 H         0.803699         2.390329        -0.784597
 H         3.243479         1.519004         2.117880
 H         1.616919         1.497627         2.818917
 H         4.087887        -1.247281         2.403252
 H         1.048151        -2.087428         1.309670
 H         0.277036        -0.725539         2.361785
 H         0.388149        -0.491652        -0.699089
 H         3.534925        -1.728970        -0.628061
