19
Iteration:   512charge 0 multiplicity 1
 C         1.686925         1.978795        -0.707993
 C         1.925148         0.952376         0.399664
 C         2.320160         1.027657         1.830908
 C         2.434975        -0.541436         1.759147
 O         3.203131        -1.294103         2.676319
 C         0.920095        -1.008317         1.642261
 C         0.989615        -0.396647         0.261321
 C         2.534786        -0.392994         0.180748
 O         3.655848        -0.807214        -0.600998
 H         0.709101         2.538493        -0.644368
 H         2.445240         2.770363        -0.756185
 H         1.672501         1.555246        -1.736013
 H         3.326096         1.576114         1.892845
 H         1.618086         1.336815         2.535698
 H         4.144248        -1.106389         2.562547
 H         1.051856        -2.163564         1.417847
 H         0.130310        -0.824789         2.438477
 H         0.255924        -0.438305        -0.440691
 H         3.935597        -0.046211        -1.103880
