19
Iteration:   629charge 0 multiplicity 1
 C         1.740556         2.091978        -0.595837
 C         1.986432         0.978580         0.365434
 C         2.355927         1.043410         1.820198
 C         2.447577        -0.495961         1.918061
 O         3.182264        -1.135711         2.828103
 C         1.028055        -1.151060         1.590246
 C         1.095356        -0.397936         0.192109
 C         2.572647        -0.389080         0.151986
 O         3.314407        -0.964296        -0.890988
 H         1.737091         1.631201        -1.584291
 H         0.788754         2.531040        -0.251598
 H         2.589152         2.889325        -0.555447
 H         3.292697         1.537127         1.990087
 H         1.492494         1.384656         2.560914
 H         4.091033        -0.820738         2.876779
 H         1.072733        -2.243948         1.427784
 H         0.302407        -1.051061         2.328014
 H         0.428440        -0.483861        -0.572319
 H         4.301903        -0.917665        -0.767130
