19
Iteration:  1660
 C         1.869389         1.982558        -0.725876
 C         2.007931         1.002201         0.471644
 C         2.530893         0.937863         1.856562
 C         2.469736        -0.611756         1.768113
 O         3.311207        -1.461019         2.477141
 C         0.947949        -0.778696         1.791551
 C         0.969157        -0.167054         0.490594
 C         2.393557        -0.388462         0.164144
 O         3.219727        -0.849148        -0.843525
 H         1.079320         2.753076        -0.492911
 H         2.855080         2.506493        -0.957763
 H         1.650643         1.293180        -1.545051
 H         3.556293         1.288148         1.951177
 H         1.818747         1.549886         2.583011
 H         4.172689        -1.077613         2.607050
 H         0.701763        -1.863584         1.791365
 H         0.471329        -0.273386         2.571335
 H         0.129839        -0.210890        -0.098382
 H         3.569170        -1.709053        -0.602488
