19
Iteration:  3245
 C         1.827734         2.256947        -0.530379
 C         1.882188         0.841935         0.261877
 C         2.381627         0.918109         1.781816
 C         2.427660        -0.554780         1.878336
 O         3.075420        -1.120714         3.006764
 C         1.064626        -1.097525         1.608169
 C         1.082173        -0.410180         0.184602
 C         2.550374        -0.490919         0.021682
 O         3.517198        -0.754856        -0.892956
 H         2.929059         2.511035        -0.502107
 H         1.587774         2.502129        -1.552788
 H         1.413249         2.836727         0.281721
 H         3.381083         1.412561         1.804490
 H         1.744912         1.351469         2.567094
 H         2.822936        -2.078371         3.013278
 H         1.005882        -2.240106         1.476480
 H         0.362844        -0.865625         2.357222
 H         0.257629        -0.481928        -0.525736
 H         3.189484        -1.476416        -1.458261
