19
Iteration:  4110
 C         1.796514         1.985163        -0.752688
 C         1.837230         0.930485         0.378173
 C         2.255326         1.017812         1.953398
 C         2.391194        -0.577674         1.785103
 O         3.275443        -1.382229         2.549963
 C         0.895153        -1.089119         1.477025
 C         0.991042        -0.299513         0.177881
 C         2.578820        -0.326111         0.290346
 O         3.707917        -0.548390        -0.421845
 H         2.446725         2.814871        -0.391047
 H         2.345123         1.564891        -1.657575
 H         0.681265         2.202480        -1.020528
 H         3.228298         1.488070         2.046260
 H         1.534496         1.466545         2.658083
 H         2.892072        -2.280849         2.478207
 H         0.954245        -2.180371         1.219689
 H         0.039972        -0.995834         2.194500
 H         0.325049        -0.501384        -0.620021
 H         3.658919        -1.347703        -0.902301
