19
Iteration:   908
 C         1.997063         1.985244        -0.681178
 C         1.811210         0.945674         0.393633
 C         2.432894         1.003576         1.769611
 C         2.509588        -0.485978         1.764551
 O         3.415753        -1.333429         2.521946
 C         0.851121        -0.940643         1.786821
 C         0.887758        -0.374034         0.348391
 C         2.359753        -0.356953         0.221134
 O         3.357341        -0.823521        -0.670241
 H         1.132240         1.951799        -1.488462
 H         2.119120         3.047919        -0.305656
 H         2.950973         1.714215        -1.189306
 H         3.404508         1.385105         1.526033
 H         2.079141         1.597525         2.576835
 H         4.178464        -0.722145         2.740233
 H         0.950500        -2.003576         1.781056
 H         0.329369        -0.565913         2.649422
 H         0.027430        -0.524558        -0.303096
 H         3.031498        -1.675743        -1.094239
