19
Iteration:   531
 C         1.754363         2.049376        -0.666944
 C         1.800998         0.860525         0.325996
 C         2.378122         0.995384         1.917466
 C         2.374143        -0.505506         1.789514
 O         3.264576        -1.223858         2.581150
 C         0.999896        -1.050293         1.653823
 C         0.994857        -0.431278         0.150627
 C         2.493170        -0.441538         0.204189
 O         3.591812        -0.821790        -0.546970
 H         0.764958         2.319212        -0.833234
 H         2.341044         2.811493        -0.299260
 H         2.123007         1.785722        -1.686249
 H         3.410933         1.193970         1.892558
 H         1.799238         1.498131         2.703343
 H         3.939089        -0.558241         2.652615
 H         0.714764        -2.169316         1.726585
 H         0.307170        -0.338882         2.178141
 H         0.197680        -0.518931        -0.606201
 H         3.924745        -0.007847        -1.011626
