19
Iteration:  1358
 C         1.848958         2.189023        -0.444979
 C         1.980059         0.929485         0.335054
 C         2.531543         0.956524         1.698279
 C         2.524627        -0.594245         1.727420
 O         3.242983        -1.198573         2.758137
 C         0.976962        -0.938022         1.745447
 C         0.978685        -0.378716         0.314509
 C         2.416964        -0.490238         0.102667
 O         3.275423        -0.964399        -0.867894
 H         2.578530         2.294786        -1.285531
 H         0.912823         2.540356        -0.956802
 H         2.010965         3.161222         0.090713
 H         3.487440         1.494698         1.559862
 H         2.038190         1.383563         2.590478
 H         4.053634        -0.638191         2.895866
 H         0.779843        -2.007911         1.692888
 H         0.246813        -0.392430         2.520936
 H         0.227403        -0.396503        -0.552970
 H         3.043668        -1.911115        -0.790006
