19
Iteration:  4164
 C         1.893831         2.217302        -0.414058
 C         1.956047         0.903686         0.344426
 C         2.025845         0.965051         1.872448
 C         2.343287        -0.582093         1.907744
 O         3.268821        -1.225421         2.760789
 C         0.961482        -1.143436         1.474593
 C         1.203261        -0.449674         0.049245
 C         2.644968        -0.454327         0.159270
 O         3.493709        -0.707625        -0.815983
 H         2.313727         3.106172         0.132962
 H         2.496930         2.127077        -1.385874
 H         0.830819         2.559066        -0.836155
 H         2.867827         1.571211         2.041891
 H         1.164397         1.290271         2.397848
 H         3.252282        -0.888098         3.683687
 H         0.928237        -2.198524         1.438000
 H         0.047296        -0.832481         2.074650
 H         0.634963        -0.654473        -0.785742
 H         3.697481        -1.612083        -0.852308
