19
Iteration:  4229charge 0 multiplicity 1
 C         1.682923         2.142888        -0.608319
 C         1.927488         0.977920         0.430331
 C         2.246595         1.032532         1.972982
 C         2.331308        -0.550919         1.877516
 O         3.108906        -1.286953         2.893453
 C         0.981542        -1.252246         1.349765
 C         1.149966        -0.364771         0.083131
 C         2.663930        -0.327781         0.175179
 O         3.679103        -0.721507        -0.726918
 H         2.689292         2.510318        -0.905849
 H         1.073987         1.761998        -1.479205
 H         1.063569         2.914420         0.010470
 H         3.241768         1.389331         1.959375
 H         1.607793         1.612288         2.659447
 H         3.830997        -1.692412         2.371787
 H         1.012820        -2.224079         1.073691
 H        -0.069033        -1.101847         1.862573
 H         0.519213        -0.297207        -0.710373
 H         3.394958        -1.604056        -1.105014
