19
Iteration:  3879
 C         1.810931         2.016781        -0.666436
 C         1.883916         0.971952         0.423969
 C         2.200226         0.962044         1.964800
 C         2.390846        -0.530855         1.785984
 O         3.257942        -1.365935         2.631398
 C         0.950078        -1.031373         1.480418
 C         1.029807        -0.374128         0.152448
 C         2.601753        -0.309011         0.182695
 O         3.624914        -0.700959        -0.626288
 H         2.680190         2.626584        -0.592546
 H         1.919850         1.614716        -1.639696
 H         0.909108         2.555510        -0.600000
 H         2.981300         1.675539         2.156746
 H         1.305711         1.246790         2.688247
 H         3.141415        -1.110276         3.570620
 H         1.028201        -2.093426         1.395819
 H         0.040214        -0.895619         2.158350
 H         0.473947        -0.377962        -0.759689
 H         3.764486        -1.614989        -0.594492
