19
Iteration:  1911charge 0 multiplicity 1
 C         1.983520         2.070293        -0.482373
 C         1.946179         0.953945         0.414703
 C         2.368359         1.002851         1.851295
 C         2.487970        -0.586565         1.762039
 O         3.326074        -1.284701         2.644204
 C         0.985220        -0.906643         1.681883
 C         1.007001        -0.242323         0.319623
 C         2.564608        -0.459736         0.179886
 O         3.155889        -0.943375        -0.960704
 H         2.185210         1.667184        -1.491588
 H         1.014222         2.610340        -0.511894
 H         2.802586         2.720306        -0.185871
 H         3.384954         1.439720         1.814617
 H         1.811723         1.431207         2.728327
 H         3.708172        -0.627475         3.256870
 H         0.582032        -1.989376         1.699030
 H         0.393397        -0.332825         2.425592
 H         0.251215        -0.379117        -0.477040
 H         2.810732        -1.860935        -1.173960
