19
Iteration:  2216charge 0 multiplicity 1
 C         1.996726         2.012170        -0.557036
 C         1.817339         0.953680         0.406239
 C         2.399617         1.022445         1.868861
 C         2.339718        -0.551490         1.748029
 O         3.354196        -1.350276         2.382607
 C         0.933218        -0.929046         1.742288
 C         0.945104        -0.296374         0.217717
 C         2.426054        -0.416231         0.211123
 O         3.444357        -0.847453        -0.574927
 H         2.782258         1.673033        -1.323322
 H         1.072225         2.205403        -1.155315
 H         2.250859         3.023798        -0.070841
 H         3.315466         1.663965         1.868048
 H         1.753824         1.523555         2.569196
 H         4.089301        -0.783148         2.642841
 H         0.758610        -2.039416         1.656557
 H         0.318726        -0.553546         2.536936
 H         0.183896        -0.311621        -0.610807
 H         3.173972        -1.767769        -0.929860
