19
Iteration:  4885
 C         1.723190         2.173775        -0.507944
 C         1.924061         0.965658         0.378155
 C         2.378382         0.999155         1.798182
 C         2.343853        -0.541454         1.826530
 O         3.172048        -1.395751         2.584134
 C         0.949262        -1.061020         1.507692
 C         1.032004        -0.262189         0.185321
 C         2.598670        -0.378822         0.175597
 O         3.597188        -0.845037        -0.557070
 H         0.707272         2.396438        -0.788446
 H         2.038487         3.102686        -0.063964
 H         2.291324         2.087202        -1.440783
 H         3.363140         1.277962         2.021091
 H         1.683381         1.437559         2.612180
 H         4.081108        -1.091213         2.593682
 H         1.047266        -2.124378         1.278844
 H         0.038327        -0.935756         2.215329
 H         0.371420        -0.256927        -0.725455
 H         3.450701        -1.766844        -0.740128
