19
Iteration:  2366charge 0 multiplicity 1
 C         1.909641         2.188921        -0.594937
 C         1.916202         0.988258         0.359197
 C         2.226809         1.047235         1.912631
 C         2.435466        -0.509065         1.806321
 O         3.242127        -1.402292         2.460713
 C         1.051447        -0.985132         1.625933
 C         1.021481        -0.305265         0.270520
 C         2.476492        -0.397663         0.180508
 O         3.429428        -0.960097        -0.667271
 H         0.894737         2.186167        -0.944676
 H         2.007113         3.169670        -0.113379
 H         2.581259         2.116439        -1.523752
 H         3.181307         1.474673         2.150697
 H         1.481876         1.453421         2.663832
 H         4.003910        -1.040023         2.938457
 H         0.975902        -2.129202         1.674778
 H         0.358377        -0.523494         2.414176
 H         0.330352        -0.398868        -0.621278
 H         3.758136        -1.826951        -0.311338
