19
Iteration:  4126charge 0 multiplicity 1
 C         1.858306         2.015238        -0.687818
 C         1.807302         1.022092         0.492354
 C         2.198692         0.973348         1.949793
 C         2.318345        -0.563070         1.822426
 O         3.276709        -1.294295         2.602810
 C         1.000828        -1.161066         1.415752
 C         0.998118        -0.335789         0.147983
 C         2.482421        -0.351281         0.189007
 O         3.727339        -0.628993        -0.556649
 H         2.266224         2.996846        -0.482097
 H         2.458754         1.549856        -1.444276
 H         0.909616         2.121750        -1.077299
 H         3.259338         1.400030         2.097326
 H         1.621188         1.360351         2.856916
 H         2.903711        -1.993560         3.160618
 H         1.136194        -2.293161         1.222461
 H         0.257264        -0.888580         2.155050
 H         0.200548        -0.047919        -0.619495
 H         3.733329        -1.595876        -0.804422
