19
Iteration:  2023charge 0 multiplicity 1
 C         1.951050         2.085328        -0.682863
 C         1.887807         0.987302         0.376259
 C         2.423125         1.102843         1.873739
 C         2.493148        -0.548553         1.765533
 O         3.282469        -1.508863         2.467229
 C         0.980897        -0.907531         1.772164
 C         0.904282        -0.281211         0.304951
 C         2.466079        -0.381026         0.267566
 O         3.367091        -0.868522        -0.652077
 H         0.995845         2.542295        -0.883401
 H         2.447885         3.027024        -0.530703
 H         2.198669         1.598862        -1.595928
 H         3.315248         1.614563         2.099492
 H         1.656555         1.377678         2.689708
 H         4.098412        -1.556303         1.989760
 H         0.693132        -1.975902         1.673415
 H         0.502312        -0.338394         2.648873
 H         0.142010        -0.245789        -0.495113
 H         3.051630        -1.680024        -1.009472
