19
Iteration:  1302
 C         1.846698         1.836164        -0.817321
 C         2.026439         0.942184         0.446633
 C         2.413526         0.970209         1.977563
 C         2.521608        -0.547750         1.791527
 O         3.231762        -1.363747         2.576119
 C         1.035714        -0.858575         1.740188
 C         0.996765        -0.209759         0.372110
 C         2.426797        -0.412657         0.211743
 O         3.310958        -0.725499        -0.823639
 H         1.741468         1.154120        -1.699137
 H         0.877438         2.360236        -0.625649
 H         2.640284         2.625056        -0.935734
 H         3.418849         1.445492         2.132780
 H         1.686176         1.263830         2.711132
 H         4.203931        -1.193193         2.542564
 H         0.649907        -1.871182         1.872424
 H         0.407456        -0.208398         2.540360
 H         0.142972        -0.170955        -0.398230
 H         3.108721        -1.594981        -1.096389
