19
Iteration:  1772charge 0 multiplicity 1
 C         1.854920         2.258046        -0.566057
 C         1.954922         1.029023         0.353731
 C         2.582924         0.953025         1.836990
 C         2.547590        -0.547442         1.787826
 O         3.228108        -1.350350         2.579955
 C         1.021067        -0.947855         1.676054
 C         1.043120        -0.228614         0.313542
 C         2.495499        -0.429659         0.205581
 O         3.108662        -1.031100        -0.790480
 H         2.522042         3.136685        -0.625293
 H         1.833321         1.910093        -1.617421
 H         0.790448         2.611640        -0.432705
 H         3.671965         1.313576         1.811605
 H         2.027915         1.435696         2.715343
 H         4.093012        -1.044262         2.981709
 H         1.114569        -1.992229         1.520023
 H         0.257064        -0.803975         2.441940
 H         0.167087        -0.522147        -0.370834
 H         2.898464        -1.966546        -0.599779
