19
Iteration:  1658charge 0 multiplicity 1
 C         1.855887         1.977830        -0.719158
 C         2.024608         1.011844         0.454233
 C         2.528311         0.934627         1.879312
 C         2.449209        -0.601847         1.789822
 O         3.324015        -1.464056         2.468753
 C         0.964298        -0.773716         1.812778
 C         0.965887        -0.168661         0.461074
 C         2.400724        -0.394134         0.162900
 O         3.221949        -0.859326        -0.849664
 H         1.048833         2.778606        -0.533586
 H         2.830332         2.600953        -0.928567
 H         1.677734         1.284180        -1.582620
 H         3.572917         1.182009         1.988937
 H         1.811911         1.547231         2.602017
 H         4.229499        -1.064158         2.600303
 H         0.630912        -1.843116         1.770983
 H         0.363463        -0.228995         2.519663
 H         0.054932        -0.206235        -0.106038
 H         3.542054        -1.695157        -0.581886
