19
Iteration:  1118
 C         1.973125         1.951269        -0.639083
 C         1.859034         0.886227         0.422946
 C         2.447603         0.996742         1.834494
 C         2.464942        -0.539820         1.848671
 O         3.405734        -1.278580         2.616626
 C         0.866922        -0.833734         1.799437
 C         0.910555        -0.258565         0.322355
 C         2.481637        -0.556163         0.268144
 O         3.274365        -0.798786        -0.949931
 H         2.281197         1.514231        -1.651205
 H         0.951819         2.407463        -0.827167
 H         2.582208         2.843205        -0.331027
 H         3.382892         1.463645         1.823126
 H         1.864455         1.649378         2.675445
 H         4.254820        -1.292149         2.073335
 H         0.559642        -1.820681         1.822184
 H         0.254568        -0.201106         2.423325
 H         0.162031        -0.306892        -0.394400
 H         3.545536        -1.755555        -0.810774
