19
Iteration:   415
 C         1.871471         2.148419        -0.545307
 C         1.838179         0.955544         0.325014
 C         2.144514         1.031629         1.875533
 C         2.380744        -0.560745         1.755351
 O         3.281512        -1.058008         2.698031
 C         1.019067        -1.206722         1.628658
 C         1.098023        -0.573399         0.126295
 C         2.561678        -0.352174         0.148639
 O         3.449276        -0.936102        -0.709724
 H         1.718322         3.130005         0.038027
 H         2.760688         2.262504        -1.248755
 H         0.960012         2.262459        -1.193705
 H         3.261591         1.343521         1.976101
 H         1.475707         1.430743         2.715708
 H         3.708394        -0.365308         3.210635
 H         1.134902        -2.260894         1.531958
 H         0.328276        -0.924298         2.343553
 H         0.359255        -0.528405        -0.602221
 H         4.401550        -0.746554        -0.605683
