19
Iteration:  1164charge 0 multiplicity 1
 C         1.757692         2.132061        -0.659544
 C         1.906514         0.985118         0.343671
 C         2.541392         1.059397         1.743885
 C         2.544017        -0.568388         1.838423
 O         3.222612        -1.382510         2.750328
 C         1.048533        -0.945827         1.738081
 C         0.986225        -0.240589         0.358971
 C         2.470048        -0.444033         0.138224
 O         3.289425        -0.957949        -0.789599
 H         1.273066         1.804762        -1.616717
 H         1.216828         3.093571        -0.411112
 H         2.773002         2.583925        -0.986236
 H         3.596914         1.428423         1.628609
 H         2.131910         1.641147         2.638074
 H         4.018599        -0.863777         3.050530
 H         0.999631        -2.007230         1.480989
 H         0.350806        -0.745747         2.539881
 H         0.308937        -0.605062        -0.510717
 H         2.850965        -1.605847        -1.444548
