19
Iteration:  1453charge 0 multiplicity 1
 C         1.891355         1.935921        -0.659037
 C         1.916933         0.898561         0.380291
 C         2.479269         1.049640         1.848509
 C         2.481631        -0.600409         1.814525
 O         3.352418        -1.402382         2.508400
 C         0.977669        -0.855237         1.810653
 C         0.883568        -0.168692         0.403498
 C         2.397809        -0.403219         0.171298
 O         3.341012        -0.857586        -0.731301
 H         2.145817         2.912865        -0.268982
 H         2.526711         1.787785        -1.518910
 H         0.955285         2.083286        -1.153565
 H         3.508803         1.539453         1.661252
 H         1.973274         1.669319         2.550033
 H         4.247462        -1.233331         2.089422
 H         0.654833        -1.921952         1.721942
 H         0.380153        -0.392700         2.669626
 H        -0.044492        -0.100966        -0.298146
 H         2.988763        -1.453349        -1.362918
