19
Iteration:  2411charge 0 multiplicity 1
 C         1.866346         2.015572        -0.567777
 C         1.888613         0.906149         0.460374
 C         2.399290         1.003081         1.908541
 C         2.394904        -0.522484         1.755181
 O         3.271611        -1.283654         2.417783
 C         0.871629        -0.967043         1.542544
 C         0.961513        -0.301192         0.234525
 C         2.476892        -0.420294         0.227479
 O         3.494346        -0.833557        -0.565991
 H         0.992633         2.667295        -0.661192
 H         2.666119         2.695054        -0.178865
 H         2.279418         1.572618        -1.537128
 H         3.400485         1.496810         1.785674
 H         1.988183         1.581936         2.798388
 H         4.116025        -0.833028         2.362992
 H         0.720047        -2.123309         1.323365
 H         0.050661        -0.622966         2.279290
 H         0.129798        -0.384410        -0.469076
 H         3.856378        -1.724286        -0.310394
