19
Iteration:   509
 C         1.677871         1.972908        -0.693318
 C         1.918890         0.949164         0.395352
 C         2.313793         1.038282         1.801262
 C         2.434994        -0.537952         1.767659
 O         3.195350        -1.317828         2.697067
 C         0.944255        -1.009620         1.653415
 C         1.031852        -0.367378         0.260334
 C         2.542625        -0.366075         0.191608
 O         3.644103        -0.808270        -0.607168
 H         0.773938         2.484125        -0.617175
 H         2.468026         2.653081        -0.799930
 H         1.578755         1.495947        -1.693981
 H         3.266167         1.480931         1.905253
 H         1.504354         1.368764         2.466175
 H         4.143491        -1.108929         2.451143
 H         1.030409        -2.134594         1.294463
 H         0.098731        -0.802578         2.426487
 H         0.181528        -0.505072        -0.486000
 H         3.927004        -0.054292        -1.133763
