19
Iteration:  2783charge 0 multiplicity 1
 C         1.874793         2.024061        -0.544579
 C         1.816083         0.982870         0.474516
 C         2.432689         1.034935         1.823023
 C         2.373730        -0.474281         1.756099
 O         3.282277        -1.270705         2.524751
 C         0.951293        -1.048288         1.558892
 C         0.986479        -0.368768         0.151524
 C         2.405987        -0.392891         0.172932
 O         3.540930        -0.821897        -0.565529
 H         2.349749         2.835148        -0.107005
 H         2.545828         1.768165        -1.341995
 H         0.950380         2.334094        -0.955989
 H         3.388305         1.557045         1.896310
 H         1.714330         1.366055         2.600151
 H         2.896240        -2.127245         2.696720
 H         0.880022        -2.157199         1.284339
 H         0.184091        -0.866382         2.319192
 H         0.340480        -0.423219        -0.759532
 H         4.257644        -0.873880         0.062975
