19
Iteration:  3153charge 0 multiplicity 1
 C         2.012635         2.104030        -0.588465
 C         1.808922         0.951873         0.328314
 C         2.223236         1.043337         1.883492
 C         2.381686        -0.448812         1.806167
 O         3.298222        -1.281499         2.386855
 C         0.959710        -1.070392         1.637270
 C         0.917609        -0.430432         0.217884
 C         2.465381        -0.412853         0.226733
 O         3.615968        -0.786063        -0.501141
 H         2.948107         2.143126        -1.102828
 H         1.311492         1.925616        -1.436590
 H         1.727485         3.045489        -0.062956
 H         3.137906         1.650570         1.712591
 H         1.756424         1.642305         2.762498
 H         2.986491        -1.679194         3.200564
 H         0.980779        -2.084076         1.444344
 H         0.117213        -1.037977         2.445583
 H         0.283854        -0.579486        -0.720162
 H         3.669582        -1.762361        -0.798932
