19
Iteration:  2331
 C         1.807202         2.173380        -0.531272
 C         1.994528         0.996205         0.423380
 C         2.457136         0.916535         1.838732
 C         2.397019        -0.593676         1.820592
 O         3.240776        -1.226547         2.775935
 C         0.937712        -1.040175         1.562503
 C         1.006960        -0.285984         0.152266
 C         2.523650        -0.477863         0.159030
 O         3.390654        -0.881908        -0.780512
 H         0.863856         1.933321        -1.029698
 H         1.647413         3.110798         0.049883
 H         2.622584         2.337686        -1.290184
 H         3.487306         1.024995         1.877682
 H         2.041305         1.524193         2.634635
 H         3.948511        -0.578192         2.908229
 H         0.844001        -2.106092         1.402838
 H         0.117520        -0.703691         2.242157
 H         0.349207        -0.322977        -0.731252
 H         3.255430        -1.731045        -1.334893
