19
Iteration:  1665
 C         1.902803         1.985614        -0.715257
 C         1.969120         0.985814         0.478313
 C         2.543737         0.969649         1.829329
 C         2.513246        -0.615963         1.728947
 O         3.276133        -1.461370         2.495769
 C         0.933586        -0.820178         1.774576
 C         0.958261        -0.156209         0.516874
 C         2.394157        -0.392606         0.177563
 O         3.215833        -0.829522        -0.835333
 H         1.155584         2.709377        -0.477885
 H         2.878923         2.306782        -1.000943
 H         1.532244         1.359457        -1.547858
 H         3.534581         1.508790         1.867291
 H         1.953638         1.433404         2.550902
 H         4.173512        -1.027475         2.626921
 H         0.799184        -1.894138         1.806967
 H         0.589559        -0.324809         2.772009
 H         0.120335        -0.159227        -0.263900
 H         3.572498        -1.717193        -0.637457
