19
Iteration:  2437
 C         1.852652         2.119600        -0.666670
 C         1.957779         0.968332         0.413678
 C         2.329014         0.959099         1.868673
 C         2.399163        -0.619742         1.823059
 O         3.232565        -1.351833         2.650532
 C         0.939825        -1.039650         1.635041
 C         0.984991        -0.310468         0.202102
 C         2.477452        -0.388517         0.170092
 O         3.507945        -0.769387        -0.678676
 H         1.179676         2.953484        -0.326259
 H         2.805195         2.642754        -0.782813
 H         1.607134         1.670401        -1.582677
 H         3.442251         1.386069         1.800439
 H         1.932899         1.640986         2.654258
 H         4.027149        -0.822469         2.780791
 H         0.740099        -2.110396         1.540611
 H         0.244971        -0.579511         2.371797
 H         0.253833        -0.431156        -0.587746
 H         3.397052        -1.661283        -1.012113
