19
Iteration:   709charge 0 multiplicity 1
 C         1.788287         1.974875        -0.712741
 C         1.859350         1.002220         0.420295
 C         2.383990         1.050116         1.875463
 C         2.482611        -0.520898         1.738101
 O         3.265029        -1.293705         2.534641
 C         0.931603        -0.981715         1.683988
 C         0.918300        -0.306590         0.314194
 C         2.471994        -0.424783         0.175531
 O         3.535825        -0.924013        -0.553268
 H         2.736035         2.234609        -1.218859
 H         1.129895         1.722953        -1.511965
 H         1.446216         2.934904        -0.323363
 H         3.445335         1.438273         1.905356
 H         1.881473         1.568686         2.797102
 H         4.125575        -0.953356         2.250445
 H         1.214224        -2.103444         1.653010
 H         0.201156        -0.860336         2.501205
 H         0.046455        -0.485308        -0.488256
 H         3.694135        -0.522450        -1.441613
