19
Iteration:  1051charge 0 multiplicity 1
 C         1.834287         2.150177        -0.609128
 C         1.959390         0.978375         0.385412
 C         2.498712         1.029334         1.758978
 C         2.502562        -0.525787         1.799726
 O         3.402700        -1.317108         2.557183
 C         0.955156        -0.901091         1.721089
 C         0.942634        -0.280534         0.269842
 C         2.448048        -0.425730         0.181324
 O         3.234910        -1.068668        -0.669220
 H         2.477834         1.799076        -1.479861
 H         0.743075         2.062176        -0.791780
 H         2.069424         3.102506        -0.148406
 H         3.416178         1.516800         1.847855
 H         1.893299         1.528583         2.606150
 H         4.042095        -0.827394         3.076801
 H         0.810922        -1.941319         1.844249
 H         0.360048        -0.344841         2.466351
 H         0.252870        -0.415326        -0.594585
 H         2.815706        -1.596881        -1.368881
