19
Iteration:  3662charge 0 multiplicity 1
 C         1.864886         2.140225        -0.638549
 C         1.966628         0.979585         0.398080
 C         2.198304         0.987849         1.866237
 C         2.407309        -0.561411         1.874313
 O         3.230637        -1.143133         2.778212
 C         1.010949        -1.141340         1.499172
 C         1.072680        -0.285731         0.251941
 C         2.626403        -0.400190         0.244133
 O         3.446518        -0.871412        -0.802286
 H         2.776440         2.808004        -0.709359
 H         1.816301         1.659909        -1.671627
 H         0.913778         2.738806        -0.479399
 H         3.080704         1.541634         2.123993
 H         1.355022         1.402597         2.384109
 H         2.965407        -2.097982         2.818979
 H         1.207875        -2.173745         1.106851
 H         0.160752        -0.997527         2.138151
 H         0.395376        -0.374282        -0.660653
 H         3.506147        -1.873296        -0.847435
