19
Iteration:   668charge 0 multiplicity 1
 C         1.724797         2.111715        -0.567082
 C         1.829813         0.856666         0.326250
 C         2.412496         1.062515         1.791300
 C         2.430034        -0.537356         1.813761
 O         3.285162        -1.332014         2.784096
 C         0.930204        -0.885401         1.680071
 C         1.025438        -0.437317         0.207634
 C         2.558071        -0.447483         0.167681
 O         3.514550        -0.955222        -0.773282
 H         2.279160         2.004309        -1.541672
 H         0.645029         2.177605        -0.891796
 H         1.865596         3.028502        -0.083983
 H         3.326518         1.750741         1.631837
 H         1.822904         1.479924         2.548281
 H         4.044459        -0.722826         3.016268
 H         0.833628        -1.979185         1.502997
 H         0.214671        -0.211472         2.386701
 H         0.324933        -0.506538        -0.722593
 H         3.691381        -0.110284        -1.294037
