19
Iteration:  1638charge 0 multiplicity 1
 C         1.818577         2.073742        -0.671231
 C         2.034116         0.948549         0.432697
 C         2.630057         1.021001         1.953512
 C         2.465292        -0.554350         1.806235
 O         3.364040        -1.429749         2.427626
 C         0.800053        -0.794051         1.778987
 C         0.942310        -0.195292         0.342976
 C         2.425462        -0.450446         0.220773
 O         3.228627        -0.969785        -0.829017
 H         0.780518         2.359548        -0.459795
 H         2.494893         2.951750        -0.522127
 H         1.986470         1.631702        -1.640835
 H         3.574509         1.522571         1.886826
 H         2.030783         1.455442         2.856446
 H         4.237915        -0.937283         2.395332
 H         0.688008        -1.870192         1.945917
 H         0.455636        -0.342807         2.616778
 H         0.363493         0.002402        -0.487027
 H         3.279580        -1.962210        -0.791143
