19
Iteration:  2639
 C         1.860059         2.212175        -0.538547
 C         1.896015         0.969112         0.333313
 C         2.186935         0.940715         1.799786
 C         2.373172        -0.585263         1.800495
 O         3.275674        -1.197873         2.647382
 C         0.912471        -1.022998         1.578833
 C         1.122356        -0.463501         0.164939
 C         2.570623        -0.376769         0.206485
 O         3.580582        -0.871968        -0.576070
 H         2.700685         2.422999        -1.074204
 H         1.055423         2.329535        -1.215132
 H         1.718660         2.961042         0.232307
 H         3.130800         1.477831         1.987935
 H         1.407319         1.248041         2.566528
 H         3.413227        -2.080196         2.231672
 H         0.978236        -2.114958         1.596480
 H         0.091207        -0.764067         2.199156
 H         0.378956        -0.428629        -0.628956
 H         3.147793        -0.997375        -1.418602
