19
Iteration:   397
 C         1.779773         2.101739        -0.616122
 C         1.840152         0.959246         0.359523
 C         2.170872         1.015423         1.887495
 C         2.416013        -0.499885         1.818081
 O         3.320685        -1.126553         2.622062
 C         1.019113        -1.161981         1.530448
 C         1.126671        -0.423324         0.230531
 C         2.649872        -0.379770         0.279028
 O         3.408550        -0.967438        -0.723477
 H         1.715072         3.070648        -0.128392
 H         2.722508         2.049481        -1.149105
 H         1.005637         2.059783        -1.323466
 H         2.973498         1.658766         2.029532
 H         1.271186         1.325521         2.443133
 H         3.290908        -0.723303         3.501407
 H         1.118897        -2.246189         1.438756
 H         0.016995        -0.877267         2.152444
 H         0.738959        -0.713771        -0.732743
 H         4.221640        -0.427011        -0.724698
