19
Iteration:  3995charge 0 multiplicity 1
 C         1.874151         2.120071        -0.477535
 C         1.872783         0.934338         0.367086
 C         2.071967         0.924517         1.874104
 C         2.445432        -0.620682         1.766995
 O         3.225081        -1.101725         2.815387
 C         0.997742        -1.171263         1.379127
 C         1.224238        -0.371923         0.111352
 C         2.736287        -0.282099         0.262358
 O         3.461667        -0.830044        -0.764446
 H         2.853235         2.723191        -0.545087
 H         1.539676         2.129408        -1.555102
 H         1.060711         2.784644         0.062649
 H         2.862035         1.601561         2.300834
 H         1.182092         1.108319         2.394101
 H         2.651637        -1.462717         3.530657
 H         1.003359        -2.277263         1.275373
 H         0.148882        -0.952282         2.048085
 H         0.807158        -0.582425        -0.805291
 H         3.017805        -1.535520        -1.169041
