19
Iteration:  1086charge 0 multiplicity 1
 C         1.984791         2.004822        -0.706248
 C         1.914302         1.059446         0.420516
 C         2.447205         1.050982         1.823103
 C         2.471519        -0.551565         1.773029
 O         3.306298        -1.310743         2.487605
 C         1.035564        -1.041387         1.834589
 C         0.872790        -0.236086         0.393043
 C         2.430814        -0.336362         0.232868
 O         3.263725        -0.944120        -0.755756
 H         2.525389         1.612712        -1.621412
 H         0.970737         2.180752        -1.150734
 H         2.436444         3.027189        -0.617016
 H         3.451581         1.327001         1.920542
 H         1.772920         1.506666         2.524175
 H         4.170959        -0.875710         2.506473
 H         0.942815        -2.069705         1.683403
 H         0.353148        -0.752114         2.607291
 H         0.148011        -0.352545        -0.331046
 H         2.989295        -1.906440        -0.727481
