19
Iteration:  1825charge 0 multiplicity 1
 C         1.856367         2.087534        -0.571613
 C         2.082308         0.945667         0.329008
 C         2.531360         0.996979         1.763967
 C         2.430418        -0.622631         1.756736
 O         3.285867        -1.416998         2.505928
 C         0.884027        -0.798577         1.853268
 C         0.961774        -0.316008         0.331523
 C         2.370005        -0.439130         0.175603
 O         3.342784        -0.825187        -0.712660
 H         2.755214         2.193847        -1.265914
 H         0.932056         2.168369        -1.236893
 H         1.754404         3.059142        -0.002023
 H         3.441650         1.391712         2.032189
 H         1.789358         1.272182         2.526034
 H         4.132238        -1.466637         1.963152
 H         0.643920        -1.787698         2.263588
 H         0.388202        -0.051979         2.454046
 H         0.202386        -0.325291        -0.518968
 H         3.276518        -1.812963        -0.818158
