19
Iteration:  3066
 C         1.720863         2.193347        -0.635355
 C         1.908389         0.986975         0.379632
 C         2.417510         1.078097         1.840015
 C         2.427287        -0.543570         1.903805
 O         3.041862        -1.353917         2.932080
 C         1.073425        -1.093018         1.488900
 C         1.173374        -0.398893         0.174960
 C         2.702415        -0.411784         0.248825
 O         3.355094        -0.811839        -0.851516
 H         2.381601         2.904169        -0.179424
 H         2.120642         2.056371        -1.678877
 H         0.719193         2.563745        -0.972925
 H         3.436452         1.438279         2.009739
 H         1.786159         1.556971         2.649437
 H         3.966423        -1.478548         2.715907
 H         1.073634        -2.103011         1.216730
 H         0.215307        -0.848455         2.213523
 H         0.835117        -0.755038        -0.855328
 H         2.800900        -1.398408        -1.449532
