19
Iteration:  2038
 C         1.941314         2.011525        -0.624432
 C         1.941578         1.005548         0.476521
 C         2.413782         1.008690         1.872540
 C         2.444727        -0.539148         1.753454
 O         3.295593        -1.387320         2.480348
 C         0.954530        -0.935222         1.694386
 C         0.929160        -0.249702         0.364299
 C         2.361334        -0.339005         0.129594
 O         3.379520        -0.879511        -0.674583
 H         1.042022         2.706791        -0.715605
 H         2.963343         2.500451        -0.364108
 H         2.162924         1.497193        -1.682735
 H         3.435547         1.462345         1.782371
 H         1.779724         1.491090         2.578464
 H         4.243710        -1.331709         2.196391
 H         1.000480        -2.014557         1.706079
 H         0.198367        -0.598361         2.431757
 H         0.012481        -0.087713        -0.263622
 H         3.286958        -1.890725        -0.802417
