19
Iteration:  4907charge 0 multiplicity 1
 C         1.712775         2.196151        -0.568129
 C         1.966966         0.997932         0.403491
 C         2.268779         1.041207         1.979556
 C         2.459630        -0.553673         1.763642
 O         3.108037        -1.512816         2.588709
 C         0.968668        -0.920092         1.596730
 C         1.166655        -0.415399         0.140359
 C         2.657784        -0.359909         0.145119
 O         3.518957        -0.860633        -0.718442
 H         0.655041         2.361742        -0.627179
 H         1.945426         3.160959        -0.165352
 H         2.019824         2.195210        -1.609029
 H         3.112721         1.656088         2.089589
 H         1.423869         1.230295         2.748844
 H         3.803881        -0.991190         3.082771
 H         0.653830        -1.953623         1.654446
 H         0.169231        -0.320734         2.201467
 H         0.545595        -0.515975        -0.758459
 H         4.000005        -1.675988        -0.324530
