19
Iteration:  3559
 C         1.783727         2.091988        -0.648090
 C         1.827060         1.006591         0.383003
 C         2.227880         1.091238         1.774119
 C         2.357167        -0.514503         1.833756
 O         3.316223        -1.420106         2.453558
 C         0.893377        -0.971041         1.601970
 C         1.104317        -0.366953         0.173932
 C         2.563830        -0.334999         0.305018
 O         3.544136        -0.995074        -0.452101
 H         2.738098         2.805126        -0.687087
 H         1.603384         1.463613        -1.559086
 H         0.957700         2.889965        -0.659902
 H         3.287238         1.414096         1.930417
 H         1.569043         1.532827         2.556014
 H         4.141203        -0.935297         2.402820
 H         0.808355        -2.043586         1.693776
 H         0.085690        -0.561983         2.366593
 H         0.481737        -0.523724        -0.630811
 H         4.242200        -0.423740        -0.760954
