19
Iteration:  4170
 C         1.871968         2.242849        -0.381102
 C         1.943176         0.904389         0.367132
 C         2.023244         0.941491         1.865617
 C         2.343960        -0.546044         1.917689
 O         3.255098        -1.239149         2.811940
 C         0.953817        -1.116067         1.512585
 C         1.202724        -0.491750         0.026697
 C         2.639982        -0.432065         0.106187
 O         3.549758        -0.741545        -0.878181
 H         2.356895         3.080692         0.150246
 H         2.436111         2.083659        -1.251387
 H         0.990769         2.664178        -0.686799
 H         2.867740         1.702871         2.112611
 H         1.060975         1.390642         2.348336
 H         3.389426        -0.676588         3.598319
 H         1.044480        -2.263764         1.325825
 H         0.007578        -0.827345         1.984069
 H         0.433790        -0.719503        -0.853340
 H         3.568344        -1.761982        -0.895414
