19
Iteration:  4197
 C         1.832556         2.223339        -0.362459
 C         1.891056         0.898531         0.369713
 C         2.129651         0.877327         1.866196
 C         2.430456        -0.603116         1.731586
 O         2.989968        -1.076151         2.893775
 C         1.080355        -1.240710         1.471023
 C         1.164902        -0.389960         0.090941
 C         2.696401        -0.408964         0.122070
 O         3.580591        -0.773524        -0.826710
 H         2.636151         2.901077         0.046036
 H         2.012477         2.152595        -1.499996
 H         0.802875         2.759654        -0.146559
 H         3.014629         1.436800         2.012114
 H         1.416012         1.202719         2.576895
 H         3.933111        -0.860510         2.848419
 H         1.080247        -2.274228         1.238096
 H         0.287770        -0.859203         2.171693
 H         0.554038        -0.571212        -0.709820
 H         3.200506        -1.550574        -1.322178
