19
Iteration:  3289charge 0 multiplicity 1
 C         1.859811         2.062818        -0.528960
 C         2.032605         0.920145         0.434115
 C         2.204736         1.041390         1.951127
 C         2.416776        -0.588734         1.848960
 O         3.209430        -1.111134         2.842397
 C         1.005320        -1.071863         1.476986
 C         1.201217        -0.290952         0.129776
 C         2.641487        -0.456043         0.217163
 O         3.317226        -0.851800        -0.951028
 H         2.350608         3.065295        -0.309862
 H         2.328138         1.696445        -1.476807
 H         0.804092         2.393001        -0.584735
 H         3.198348         1.470705         2.250863
 H         1.384579         1.335960         2.657449
 H         2.964940        -2.022445         3.134629
 H         0.932458        -2.185969         1.130827
 H         0.210727        -0.826616         2.196281
 H         0.484010        -0.076756        -0.693559
 H         3.349366        -1.816603        -1.162520
