19
Iteration:  4717charge 0 multiplicity 1
 C         1.700139         2.135041        -0.546275
 C         1.876509         0.961573         0.380887
 C         2.172561         1.038907         1.973434
 C         2.393245        -0.556246         1.890269
 O         3.217485        -1.299904         2.745470
 C         0.988857        -0.953740         1.479255
 C         1.197853        -0.428224         0.104397
 C         2.676599        -0.390680         0.204235
 O         3.619477        -0.879447        -0.784222
 H         1.007418         2.904141        -0.072805
 H         2.627518         2.721607        -0.488842
 H         1.351202         2.036761        -1.573702
 H         3.108838         1.681450         2.199345
 H         1.386383         1.456402         2.724087
 H         3.317512        -2.128049         2.265600
 H         0.654084        -2.096240         1.513363
 H         0.237213        -0.336122         2.025506
 H         0.667417        -0.604408        -0.758311
 H         2.968445        -1.429778        -1.288913
