19
Iteration:  2848
 C         1.878162         2.058960        -0.431844
 C         1.921855         0.946041         0.457671
 C         2.291974         0.929803         1.911771
 C         2.357438        -0.587896         1.828914
 O         3.192598        -1.077078         2.788741
 C         0.936309        -1.039073         1.445703
 C         1.120421        -0.320240         0.144762
 C         2.676767        -0.350957         0.129663
 O         3.382353        -0.961692        -0.836918
 H         2.639439         2.789274        -0.443083
 H         1.761163         1.644375        -1.442468
 H         0.962832         2.603811        -0.103176
 H         3.268849         1.356019         2.065584
 H         1.575325         1.437206         2.549858
 H         3.601463        -1.860254         2.342126
 H         0.706009        -2.094832         1.331813
 H         0.137478        -0.705438         2.157526
 H         0.446951        -0.529003        -0.659567
 H         4.274456        -0.641229        -1.108902
