19
Iteration:  1604
 C         1.863957         2.293004        -0.500956
 C         1.922922         0.991123         0.349295
 C         2.607372         1.004752         1.776311
 C         2.512766        -0.511329         1.723901
 O         3.279974        -1.364491         2.580804
 C         1.003246        -0.916834         1.791627
 C         0.898325        -0.238742         0.368852
 C         2.425752        -0.459725         0.107542
 O         3.246582        -1.161966        -0.747347
 H         0.850050         2.736598        -0.683810
 H         2.279553         3.139551         0.130116
 H         2.220523         2.394962        -1.532213
 H         3.536979         1.406285         1.485579
 H         2.016189         1.708069         2.503969
 H         4.252196        -1.278225         2.309502
 H         1.121782        -2.015352         1.784273
 H         0.491109        -0.644025         2.643591
 H         0.117338        -0.249125        -0.412223
 H         2.643764        -1.720801        -1.208467
