19
Iteration:   903
 C         1.994128         1.967372        -0.660264
 C         1.807935         0.974480         0.363509
 C         2.443234         1.027113         1.748417
 C         2.516316        -0.482672         1.743722
 O         3.387436        -1.331797         2.529163
 C         0.910724        -0.922037         1.767869
 C         0.872270        -0.372861         0.348904
 C         2.380382        -0.407805         0.203576
 O         3.321896        -0.811486        -0.638680
 H         1.099482         1.995328        -1.182945
 H         2.063629         2.929168        -0.204150
 H         2.916627         1.615674        -1.151518
 H         3.532712         1.379259         1.593521
 H         2.014283         1.689163         2.588691
 H         4.124813        -0.754275         2.663403
 H         0.970527        -2.065627         1.693416
 H         0.380287        -0.684209         2.740691
 H         0.150062        -0.544751        -0.474849
 H         3.062049        -1.651935        -0.949521
