19
Iteration:  3887charge 0 multiplicity 1
 C         1.762095         1.960270        -0.653564
 C         1.880587         0.938071         0.427015
 C         2.175606         0.982129         1.937157
 C         2.429385        -0.532982         1.824241
 O         3.176055        -1.361110         2.534812
 C         0.996250        -1.023104         1.487244
 C         1.053596        -0.316842         0.132726
 C         2.608061        -0.398787         0.237235
 O         3.652327        -0.651724        -0.592421
 H         2.631214         2.641968        -0.423781
 H         2.039027         1.372089        -1.527884
 H         0.908661         2.662900        -0.800124
 H         3.077072         1.607323         2.150391
 H         1.338788         1.203022         2.640671
 H         3.374494        -1.140645         3.444960
 H         0.974343        -2.089602         1.589450
 H         0.229014        -0.529002         2.211609
 H         0.355043        -0.225309        -0.648750
 H         3.728354        -1.582242        -0.670017
