19
Iteration:  1073
 C         1.918969         2.067875        -0.726017
 C         1.881941         0.963869         0.402442
 C         2.444829         1.091041         1.853937
 C         2.414699        -0.432980         1.787063
 O         3.321200        -1.335846         2.458657
 C         1.008299        -1.026821         1.725683
 C         0.938032        -0.199077         0.478809
 C         2.477673        -0.412816         0.199168
 O         3.286804        -1.031023        -0.721915
 H         2.616453         1.582403        -1.494306
 H         0.908150         2.326653        -1.157684
 H         2.343911         2.923903        -0.210182
 H         3.384116         1.523855         1.703753
 H         2.056720         1.695465         2.787514
 H         4.099116        -0.861586         2.856298
 H         1.117898        -2.060008         1.544227
 H         0.475104        -0.840854         2.652762
 H         0.179355        -0.192969        -0.276352
 H         2.842009        -1.827559        -1.095912
