19
Iteration:   533
 C         1.764411         2.034937        -0.648623
 C         1.794423         0.864787         0.335035
 C         2.364328         0.995862         1.901141
 C         2.365169        -0.520195         1.783882
 O         3.278559        -1.220443         2.577382
 C         0.994758        -1.023754         1.653267
 C         1.004563        -0.444888         0.139835
 C         2.498680        -0.432981         0.209008
 O         3.577466        -0.825740        -0.542601
 H         0.753290         2.370206        -0.886644
 H         2.314389         2.840450        -0.262210
 H         2.167284         1.840050        -1.661846
 H         3.449157         1.202208         1.838543
 H         1.835308         1.458502         2.643118
 H         3.961469        -0.533441         2.691810
 H         0.702535        -2.186435         1.689905
 H         0.231241        -0.356943         2.236626
 H         0.283547        -0.580029        -0.545190
 H         3.940003         0.003786        -1.023575
