19
Iteration:   708charge 0 multiplicity 1
 C         1.787758         1.979352        -0.711498
 C         1.864234         0.993646         0.416936
 C         2.391462         1.048463         1.873514
 C         2.477013        -0.528322         1.733637
 O         3.259770        -1.289821         2.534860
 C         0.927469        -0.972942         1.691349
 C         0.923165        -0.313145         0.312404
 C         2.478522        -0.426935         0.176825
 O         3.532711        -0.917909        -0.555081
 H         2.725734         2.234460        -1.242020
 H         1.098346         1.692267        -1.489914
 H         1.458603         2.978059        -0.291112
 H         3.422470         1.419375         1.887401
 H         1.878390         1.558362         2.805660
 H         4.097565        -0.924195         2.250199
 H         1.224078        -2.077381         1.678245
 H         0.231271        -0.901345         2.471247
 H         0.065172        -0.481577        -0.490275
 H         3.691058        -0.525843        -1.411244
