19
Iteration:  4930
 C         1.714774         2.070288        -0.469494
 C         1.973431         0.951711         0.455827
 C         2.283435         0.990401         1.933939
 C         2.396876        -0.535627         1.834900
 O         3.113405        -1.422050         2.628948
 C         0.939457        -0.931105         1.513800
 C         1.107555        -0.301169         0.162059
 C         2.671329        -0.397745         0.202345
 O         3.543379        -0.874301        -0.855893
 H         0.769682         2.558528        -0.488649
 H         2.374944         2.905090        -0.270326
 H         1.892819         1.762013        -1.507013
 H         3.230829         1.423874         1.897799
 H         1.474051         1.557246         2.512686
 H         3.625843        -0.885152         3.223167
 H         0.755984        -1.989462         1.451422
 H         0.123186        -0.505916         2.224567
 H         0.512169        -0.409589        -0.679869
 H         4.460217        -0.831800        -0.584939
