19
Iteration:   563charge 0 multiplicity 1
 C         1.849721         2.081300        -0.582759
 C         1.837784         0.879623         0.333470
 C         2.206243         1.110912         1.823498
 C         2.445177        -0.486528         1.831438
 O         3.376746        -1.222695         2.623844
 C         0.919848        -1.083388         1.629892
 C         0.999970        -0.419354         0.205042
 C         2.556792        -0.479434         0.210762
 O         3.484642        -0.937775        -0.693357
 H         0.960339         2.380985        -1.114993
 H         2.018506         3.012094        -0.044380
 H         2.628272         2.148645        -1.404957
 H         3.086776         1.702050         1.928269
 H         1.337376         1.525297         2.537352
 H         3.986123        -0.696396         3.197854
 H         0.766602        -2.198693         1.607276
 H         0.119610        -0.777770         2.297841
 H         0.271961        -0.566628        -0.643107
 H         4.029516        -0.198611        -0.912164
