19
Iteration:  1341
 C         1.853785         2.153278        -0.614837
 C         1.834226         0.930593         0.331425
 C         2.556344         1.001559         1.760332
 C         2.474793        -0.507027         1.899430
 O         3.261200        -1.337629         2.757786
 C         1.025033        -0.948581         1.705959
 C         0.938091        -0.295558         0.296790
 C         2.500928        -0.513244         0.165122
 O         3.251679        -0.866826        -0.858035
 H         2.456244         2.115971        -1.536022
 H         0.822461         2.255491        -0.921376
 H         2.331098         2.937398        -0.018758
 H         3.652573         1.196083         1.597153
 H         2.197164         1.792999         2.497484
 H         4.178033        -0.995218         2.855763
 H         1.005913        -2.051613         1.533701
 H         0.257371        -0.475628         2.338764
 H         0.250628        -0.490088        -0.425632
 H         3.204482        -1.852602        -1.090951
