19
Iteration:  3846charge 0 multiplicity 1
 C         1.872754         2.184769        -0.483255
 C         1.917499         0.879916         0.364638
 C         2.222745         0.914941         1.856169
 C         2.310738        -0.552720         1.799845
 O         3.247729        -1.055531         2.717155
 C         0.970323        -1.178382         1.439237
 C         1.112011        -0.425729         0.144835
 C         2.603983        -0.382717         0.224260
 O         3.509139        -0.807342        -0.715004
 H         2.857553         2.617059        -0.481148
 H         1.507424         2.159934        -1.467878
 H         1.329097         2.939311         0.032765
 H         3.107682         1.497721         1.975866
 H         1.280417         1.328485         2.421504
 H         2.741737        -1.468213         3.464061
 H         1.256499        -2.160990         1.162546
 H         0.054854        -1.151893         2.099146
 H         0.680128        -0.429726        -0.797836
 H         3.730901        -1.781611        -0.839065
