19
Iteration:  3235
 C         1.866159         2.140106        -0.472423
 C         1.916386         0.877782         0.317716
 C         2.395764         0.940777         1.785811
 C         2.455058        -0.560043         1.832497
 O         3.057970        -1.135421         2.941769
 C         1.038694        -1.028668         1.548843
 C         0.958251        -0.443665         0.210144
 C         2.523872        -0.426104         0.089030
 O         3.557873        -0.748035        -0.866631
 H         2.876059         2.527152        -0.780169
 H         1.166219         2.100276        -1.338564
 H         1.522000         3.012063         0.112946
 H         3.427054         1.299664         1.843601
 H         1.698110         1.431230         2.420473
 H         3.154394        -2.093776         2.773659
 H         1.285255        -2.153768         1.487258
 H         0.284821        -0.725708         2.178933
 H         0.205500        -0.585949        -0.588201
 H         3.447937        -1.650624        -1.292068
