19
Iteration:  3961charge 0 multiplicity 1
 C         1.866102         2.090361        -0.567025
 C         1.885193         0.891546         0.404223
 C         2.197338         1.017224         1.899076
 C         2.350020        -0.571906         1.806950
 O         3.197287        -1.160274         2.754548
 C         0.931126        -1.137894         1.467723
 C         1.042120        -0.419065         0.160634
 C         2.632065        -0.366196         0.146581
 O         3.645788        -0.712963        -0.679456
 H         2.555153         2.897732        -0.181406
 H         1.988394         1.792729        -1.657108
 H         0.813320         2.517145        -0.464928
 H         3.163760         1.471648         2.253392
 H         1.383480         1.266537         2.514716
 H         3.347463        -2.027714         2.296399
 H         0.975195        -2.277454         1.327930
 H         0.152719        -0.850415         2.128166
 H         0.322146        -0.188359        -0.599603
 H         3.740428        -1.649810        -0.876942
