19
Iteration:   763charge 0 multiplicity 1
 C         1.844276         2.097958        -0.605539
 C         1.946984         0.931090         0.388044
 C         2.335339         1.062060         1.899461
 C         2.389866        -0.523975         1.797091
 O         3.336406        -1.180825         2.560277
 C         0.920151        -0.974527         1.697718
 C         1.016661        -0.414809         0.286555
 C         2.529993        -0.442364         0.209196
 O         3.396529        -1.028973        -0.694795
 H         2.449978         2.974465        -0.235398
 H         2.412675         1.855866        -1.530334
 H         0.845898         2.401706        -1.121723
 H         3.242951         1.617737         2.125734
 H         1.530797         1.428631         2.635284
 H         4.161994        -0.941462         2.070761
 H         1.006978        -2.110162         1.684427
 H         0.318865        -0.505848         2.374887
 H         0.109870        -0.317843        -0.492644
 H         3.165317        -0.865628        -1.665784
