19
Iteration:  2985
 C         1.958392         2.071066        -0.573100
 C         1.747950         0.999917         0.466286
 C         2.290499         1.038072         1.859346
 C         2.378229        -0.509406         1.724098
 O         3.292324        -1.317042         2.408740
 C         0.929727        -1.062907         1.539178
 C         1.049793        -0.447927         0.212753
 C         2.500035        -0.336477         0.212363
 O         3.456771        -0.847209        -0.527248
 H         2.891690         2.632828        -0.474677
 H         2.021517         1.693030        -1.599594
 H         1.338601         2.943674        -0.417623
 H         3.339981         1.411308         1.774861
 H         1.756589         1.413425         2.809032
 H         3.652730        -0.796772         3.129398
 H         0.778642        -2.184020         1.545740
 H         0.116894        -0.582755         2.153439
 H         0.474552        -0.665657        -0.659706
 H         4.150555        -1.252022         0.089993
