19
Iteration:  3495
 C         1.889119         2.103936        -0.600881
 C         1.893954         0.922635         0.315531
 C         2.393026         0.985185         1.815292
 C         2.409268        -0.537365         1.848375
 O         3.192057        -1.184660         2.877410
 C         0.923928        -1.135343         1.566453
 C         1.046242        -0.430991         0.139950
 C         2.575185        -0.400616         0.249349
 O         3.338096        -0.800638        -0.869768
 H         2.668260         2.901489        -0.299522
 H         2.114654         1.731819        -1.604128
 H         0.938112         2.700665        -0.537015
 H         3.437865         1.324872         1.789756
 H         1.783814         1.346240         2.613818
 H         3.801878        -0.497216         3.232499
 H         1.153356        -2.165436         1.513612
 H         0.091174        -0.799720         2.277082
 H         0.604099        -0.619572        -0.783758
 H         4.113880        -1.232484        -0.580619
