19
Iteration:   989
 C         1.756361         2.184838        -0.574734
 C         1.941746         0.963923         0.306223
 C         2.620418         1.002310         1.726871
 C         2.501009        -0.485123         1.799498
 O         3.175244        -1.258905         2.797817
 C         1.049520        -0.986969         1.676683
 C         1.035611        -0.330401         0.345645
 C         2.537961        -0.401122         0.161211
 O         3.177546        -1.023336        -0.876064
 H         2.075489         2.136228        -1.604705
 H         0.692710         2.438647        -0.578197
 H         2.208512         3.154125        -0.294237
 H         3.744951         1.347813         1.712575
 H         1.972393         1.452207         2.436548
 H         4.141880        -1.269436         2.701966
 H         1.015485        -2.082291         1.754002
 H         0.524680        -0.585333         2.583449
 H         0.286891        -0.464314        -0.374158
 H         3.142793        -1.966762        -0.631091
