19
Iteration:  1415
 C         1.759487         2.158228        -0.632916
 C         2.002402         1.016740         0.379931
 C         2.484861         1.026894         1.838453
 C         2.467682        -0.563020         1.789007
 O         3.315426        -1.336150         2.604413
 C         1.069000        -0.940073         1.679299
 C         0.992351        -0.311489         0.276647
 C         2.523249        -0.324739         0.221275
 O         3.183708        -1.056775        -0.758077
 H         2.691518         2.749840        -0.415026
 H         1.794034         1.804832        -1.688626
 H         0.943161         2.829704        -0.250239
 H         3.500508         1.335432         1.860441
 H         1.886666         1.561405         2.660379
 H         4.173742        -0.920839         2.535225
 H         0.954951        -2.047071         1.557475
 H         0.325140        -0.529384         2.531719
 H         0.352088        -0.380355        -0.513518
 H         2.572074        -1.857088        -0.688887
