19
Iteration:    41charge 0 multiplicity 1
 C         1.723671         2.005792        -0.659679
 C         1.907007         0.915521         0.392483
 C         2.278448         1.073113         1.930042
 C         2.431231        -0.473505         1.879462
 O         3.353998        -1.263398         2.621002
 C         1.004532        -0.969164         1.578232
 C         1.079211        -0.284870         0.190037
 C         2.582244        -0.457601         0.206018
 O         3.401007        -0.897209        -0.793119
 H         2.337538         1.703031        -1.509606
 H         0.639541         2.017508        -0.782376
 H         2.209512         2.958634        -0.169267
 H         3.220608         1.777805         2.001216
 H         1.484468         1.405013         2.591206
 H         2.909979        -1.641792         3.430443
 H         1.148528        -2.048159         1.294254
 H         0.245784        -0.567902         2.260799
 H         0.298945        -0.309235        -0.489485
 H         4.125157        -1.418292        -0.327080
