19
Iteration:  3524
 C         1.819195         1.968021        -0.711600
 C         1.958647         1.044726         0.443880
 C         2.207002         1.006998         1.952247
 C         2.399720        -0.482135         1.811255
 O         3.233789        -1.312534         2.632797
 C         0.988950        -1.009803         1.579926
 C         1.031763        -0.243941         0.226345
 C         2.580583        -0.363212         0.209413
 O         3.446668        -0.931655        -0.734210
 H         2.587496         2.749146        -0.821307
 H         2.197653         1.303727        -1.551442
 H         0.794633         2.288902        -0.970681
 H         3.056453         1.572579         2.414411
 H         1.293850         1.203649         2.613218
 H         4.130326        -0.983007         2.605395
 H         1.281810        -2.079909         1.390681
 H         0.184848        -0.865866         2.350515
 H         0.255246        -0.200596        -0.570545
 H         4.265148        -1.112357        -0.221292
