19
Iteration:  2011charge 0 multiplicity 1
 C         1.872426         2.122221        -0.756754
 C         1.933117         0.992554         0.384259
 C         2.374083         1.041419         1.912588
 C         2.448927        -0.557162         1.864520
 O         3.264180        -1.531870         2.429604
 C         0.957717        -0.808865         1.766079
 C         1.003560        -0.240431         0.378960
 C         2.501828        -0.417042         0.274880
 O         3.380322        -0.877721        -0.697298
 H         0.834547         2.269655        -0.913396
 H         2.407369         2.907100        -0.313160
 H         2.386410         1.945892        -1.629836
 H         3.350809         1.489624         1.827093
 H         1.693331         1.624396         2.625520
 H         4.103015        -1.586277         1.889225
 H         0.850291        -1.931378         1.834951
 H         0.219935        -0.376738         2.491707
 H         0.501842        -0.692468        -0.422864
 H         3.009947        -1.674732        -1.241393
