19
Iteration:  3353
 C         1.923571         1.965780        -0.583963
 C         1.835235         0.818894         0.322117
 C         2.381502         1.039481         1.835520
 C         2.314799        -0.504356         1.770171
 O         3.295092        -1.327407         2.420986
 C         0.744170        -0.892210         1.681079
 C         0.966897        -0.423631         0.156529
 C         2.488338        -0.392048         0.280466
 O         3.685804        -0.753937        -0.404109
 H         2.502173         2.708847         0.019133
 H         2.088009         1.798935        -1.648293
 H         0.981322         2.601144        -0.591310
 H         3.474067         1.312906         1.616343
 H         1.975485         1.683192         2.694217
 H         3.990424        -1.354843         1.702834
 H         0.703044        -2.006319         1.577176
 H         0.000070        -0.368523         2.426083
 H         0.152475        -0.355948        -0.618888
 H         3.359770        -1.049010        -1.225623
