19
Iteration:  1383charge 0 multiplicity 1
 C         1.773714         2.178586        -0.402432
 C         2.025937         0.930682         0.354096
 C         2.439490         1.008856         1.814700
 C         2.421119        -0.543876         1.821165
 O         3.332860        -1.186297         2.667868
 C         0.980321        -0.864969         1.676860
 C         0.985432        -0.262255         0.286289
 C         2.509319        -0.570188         0.118873
 O         3.295632        -1.141726        -0.973953
 H         2.691410         2.526651        -0.897006
 H         1.060417         2.375697        -1.204337
 H         1.610077         3.065302         0.238298
 H         3.400380         1.382653         2.043110
 H         1.737882         1.521676         2.560196
 H         4.034716        -0.476712         2.787512
 H         0.902159        -2.005099         1.579969
 H         0.344867        -0.418617         2.638781
 H         0.179656        -0.195743        -0.337509
 H         3.129628        -2.046681        -0.805003
