19
Iteration:  3734
 C         1.858645         2.071297        -0.682764
 C         1.955556         0.945916         0.322213
 C         2.226976         1.040241         1.814060
 C         2.368115        -0.529712         1.782628
 O         3.249790        -1.483215         2.527520
 C         0.871283        -1.015531         1.594310
 C         1.029874        -0.423745         0.237443
 C         2.520608        -0.384027         0.255625
 O         3.609856        -0.639837        -0.519844
 H         2.573654         2.848078        -0.484471
 H         2.283422         1.668088        -1.560428
 H         0.870202         2.340243        -0.942751
 H         3.094940         1.743757         2.035882
 H         1.560426         1.402379         2.687999
 H         3.870091        -0.915914         3.014112
 H         0.795725        -2.080277         1.670503
 H         0.220837        -0.419403         2.333205
 H         0.186496        -0.455506        -0.519147
 H         3.591991        -1.601605        -0.487936
