19
Iteration:  1475
 C         1.935424         1.995179        -0.709264
 C         1.885893         0.960694         0.438239
 C         2.603237         0.956045         1.811689
 C         2.467077        -0.604328         1.787149
 O         3.337916        -1.363780         2.481831
 C         0.891069        -0.782437         1.866591
 C         0.871001        -0.341337         0.415505
 C         2.366646        -0.514862         0.259601
 O         3.315614        -0.703933        -0.797077
 H         1.815685         3.041930        -0.428314
 H         2.858504         1.946568        -1.286634
 H         1.261736         1.820207        -1.532622
 H         3.719431         1.320318         1.862988
 H         2.097765         1.382754         2.634411
 H         4.167333        -1.231841         2.047930
 H         0.648124        -1.878873         2.031199
 H         0.173717        -0.133160         2.563123
 H         0.070356        -0.508189        -0.418239
 H         3.251284        -1.685453        -1.107129
