19
Iteration:  4924
 C         1.688448         2.085647        -0.455400
 C         1.951803         0.989504         0.421084
 C         2.260824         0.964834         1.894580
 C         2.418710        -0.523697         1.843611
 O         3.105880        -1.454533         2.606671
 C         0.928055        -0.893952         1.527477
 C         1.170212        -0.347057         0.183400
 C         2.666182        -0.328424         0.219836
 O         3.546338        -0.889726        -0.871095
 H         0.640604         2.523171        -0.670631
 H         2.388118         2.909346        -0.106771
 H         1.998508         1.601600        -1.412871
 H         3.316865         1.516511         2.095865
 H         1.401980         1.364547         2.370963
 H         3.680324        -1.015813         3.283196
 H         0.745727        -1.994141         1.719664
 H         0.265661        -0.363940         2.150424
 H         0.464142        -0.313981        -0.720433
 H         4.421572        -1.074801        -0.350083
