19
Iteration:  1819charge 0 multiplicity 1
 C         1.827841         2.112540        -0.543456
 C         2.103175         0.938365         0.321565
 C         2.520471         0.950604         1.739198
 C         2.442242        -0.564911         1.751826
 O         3.270764        -1.396160         2.483086
 C         0.860111        -0.783665         1.832930
 C         0.911288        -0.286738         0.374548
 C         2.415536        -0.502089         0.186270
 O         3.374728        -0.852427        -0.727881
 H         2.674123         2.248048        -1.162747
 H         1.044305         1.951795        -1.240271
 H         1.709077         2.998356         0.058820
 H         3.580997         1.477676         1.994458
 H         1.821577         1.175544         2.581423
 H         4.137137        -1.346062         2.076032
 H         0.679379        -1.821311         2.169036
 H         0.291865        -0.123786         2.558679
 H         0.339731        -0.178881        -0.486058
 H         3.194576        -1.761486        -0.838775
