19
Iteration:   100
 C         1.835093         2.045233        -0.489803
 C         1.881078         0.899306         0.322507
 C         2.246837         1.021337         1.780451
 C         2.440608        -0.500701         1.793090
 O         3.367187        -1.139216         2.656049
 C         0.896756        -1.012685         1.595917
 C         1.034216        -0.340915         0.241954
 C         2.561423        -0.411728         0.219971
 O         3.444852        -0.997630        -0.684527
 H         2.440883         1.922030        -1.413656
 H         0.854269         2.298146        -0.920726
 H         2.161997         2.904728         0.009286
 H         3.239987         1.340543         1.938070
 H         1.539165         1.536348         2.470563
 H         3.740938        -1.939053         2.234418
 H         0.737106        -2.033181         1.738291
 H         0.217921        -0.514640         2.204827
 H         0.169736        -0.424822        -0.558703
 H         3.927473        -0.286571        -1.056573
