19
Iteration:  4739
 C         1.698616         2.147402        -0.386850
 C         1.964098         0.893775         0.302576
 C         2.323030         0.945510         1.763588
 C         2.466060        -0.568625         1.755476
 O         3.078595        -1.221986         2.754279
 C         0.945115        -0.999487         1.607975
 C         1.107299        -0.491831         0.136584
 C         2.636542        -0.405839         0.169900
 O         3.646536        -0.717287        -0.719256
 H         1.180528         2.989995         0.147674
 H         2.584763         2.676914        -0.755087
 H         1.067114         2.010681        -1.258921
 H         3.247876         1.620673         1.762400
 H         1.545639         1.506542         2.420046
 H         2.807083        -2.176643         2.756411
 H         0.849535        -2.185614         1.631955
 H         0.162139        -0.546049         2.265119
 H         0.647115        -0.559715        -0.775271
 H         3.400734        -1.537110        -1.188107
