19
Iteration:  2728
 C         1.834714         2.019990        -0.537086
 C         1.946635         0.957704         0.443607
 C         2.235729         1.006589         1.884938
 C         2.433322        -0.494985         1.772856
 O         3.212834        -1.237686         2.786675
 C         1.016702        -1.029870         1.504466
 C         1.011457        -0.362752         0.174220
 C         2.596656        -0.358904         0.120548
 O         3.555977        -0.831775        -0.756194
 H         2.459332         2.766407        -0.204837
 H         2.059565         1.795134        -1.546562
 H         0.885078         2.495122        -0.382472
 H         3.181153         1.517131         2.069368
 H         1.339451         1.316843         2.496370
 H         3.205090        -2.174831         2.495064
 H         0.741766        -2.138912         1.501761
 H         0.353557        -0.489349         2.198560
 H         0.157085        -0.164847        -0.577831
 H         3.198142        -1.640741        -1.141497
