19
Iteration:  4195
 C         1.842138         2.221247        -0.362390
 C         1.881408         0.891539         0.359213
 C         2.117089         0.890931         1.877225
 C         2.429013        -0.602098         1.742441
 O         2.997285        -1.081707         2.889964
 C         1.074794        -1.244875         1.462849
 C         1.163763        -0.391584         0.102712
 C         2.696547        -0.401404         0.114508
 O         3.594499        -0.782162        -0.846429
 H         2.604729         2.927239         0.103384
 H         2.030776         2.210317        -1.439633
 H         0.859931         2.739943        -0.176741
 H         3.003122         1.475962         2.024774
 H         1.366455         1.194156         2.634263
 H         3.927222        -0.800334         2.875835
 H         1.038337        -2.272193         1.330107
 H         0.292018        -0.817592         2.183388
 H         0.517758        -0.587149        -0.707785
 H         3.206321        -1.594995        -1.328616
