19
Iteration:  2222charge 0 multiplicity 1
 C         1.980551         1.987514        -0.553530
 C         1.863616         0.937936         0.457262
 C         2.374284         1.045479         1.883026
 C         2.433907        -0.546505         1.741591
 O         3.344384        -1.324255         2.405488
 C         0.924216        -0.936040         1.663322
 C         0.873427        -0.281164         0.262095
 C         2.403208        -0.440478         0.181922
 O         3.450341        -0.861160        -0.592169
 H         2.745688         1.717221        -1.236218
 H         1.076987         2.165580        -1.122912
 H         2.398229         2.929379        -0.256373
 H         3.344502         1.574355         1.830785
 H         1.632818         1.462716         2.688645
 H         4.087204        -0.719447         2.682656
 H         0.761539        -1.998620         1.513985
 H         0.261906        -0.487072         2.474637
 H         0.152635        -0.123320        -0.497945
 H         3.352824        -1.743435        -0.965070
