19
Iteration:  2856charge 0 multiplicity 1
 C         1.842365         2.117941        -0.422751
 C         1.911461         0.950672         0.442910
 C         2.323935         0.937011         1.877852
 C         2.360659        -0.583489         1.777848
 O         3.166307        -1.089072         2.862549
 C         0.935085        -1.110073         1.498086
 C         1.143120        -0.310506         0.150886
 C         2.630375        -0.329622         0.097770
 O         3.408041        -0.999482        -0.892685
 H         2.859684         2.579519        -0.405818
 H         1.595579         1.808170        -1.500410
 H         0.975832         2.861388        -0.200929
 H         3.335718         1.243211         2.086613
 H         1.625833         1.445800         2.562273
 H         3.723603        -1.853387         2.622044
 H         0.928258        -2.167744         1.452432
 H         0.064792        -0.706954         2.120189
 H         0.481029        -0.336844        -0.762413
 H         4.221264        -0.503579        -0.807535
