19
Iteration:  4244
 C         1.672794         2.041040        -0.584866
 C         1.885101         1.001821         0.444974
 C         2.182477         0.989442         1.921465
 C         2.342670        -0.587287         1.844379
 O         3.096751        -1.328553         2.703231
 C         0.945313        -1.062470         1.431425
 C         1.181496        -0.348721         0.156795
 C         2.693869        -0.315533         0.234277
 O         3.742501        -0.693166        -0.677596
 H         2.562097         2.277617        -1.187831
 H         0.930994         1.662786        -1.397297
 H         1.258818         3.073034        -0.326060
 H         3.115480         1.482696         2.285209
 H         1.414445         1.294931         2.603167
 H         3.635015        -1.969961         2.190630
 H         1.182533        -2.211854         1.369751
 H         0.201221        -0.795508         2.121378
 H         0.562039        -0.455841        -0.849541
 H         3.642987        -1.601645        -0.836257
