19
Iteration:  4588charge 0 multiplicity 1
 C         1.730341         2.056539        -0.641596
 C         1.921537         0.995971         0.459756
 C         2.500180         0.897813         1.887762
 C         2.422358        -0.588419         1.771879
 O         3.054095        -1.353677         2.771640
 C         0.986880        -1.128975         1.472998
 C         1.082164        -0.225108         0.225322
 C         2.547677        -0.362921         0.185483
 O         3.499230        -0.663082        -0.713557
 H         0.656122         2.052088        -1.048511
 H         1.942879         3.135477        -0.641013
 H         2.385433         1.834405        -1.510103
 H         3.471990         1.343026         1.883617
 H         1.907501         1.345420         2.677747
 H         3.706124        -0.747305         3.194183
 H         1.207476        -2.127696         1.091058
 H         0.288470        -1.154601         2.291648
 H         0.523931        -0.488498        -0.644606
 H         3.529464        -1.640237        -0.801066
