19
Iteration:  4566
 C         1.729631         2.014332        -0.617628
 C         2.017175         1.000540         0.470623
 C         2.428711         1.010377         1.954211
 C         2.408822        -0.559118         1.849670
 O         3.063386        -1.365654         2.820451
 C         1.011803        -1.178584         1.453230
 C         1.101102        -0.333240         0.130751
 C         2.587520        -0.301747         0.147568
 O         3.444568        -0.722588        -0.878506
 H         0.624956         2.341660        -0.663661
 H         2.139166         3.025111        -0.344482
 H         2.105926         2.034581        -1.645274
 H         3.479320         1.239696         2.009285
 H         1.932604         1.584662         2.714471
 H         3.435478        -0.721890         3.438538
 H         1.110195        -2.252667         1.409103
 H         0.261636        -0.901978         2.188107
 H         0.264092        -0.217178        -0.590232
 H         3.870516        -1.536525        -0.498982
