19
Iteration:   967charge 0 multiplicity 1
 C         1.779917         2.075259        -0.685476
 C         1.944593         0.995991         0.419521
 C         2.502115         1.089038         1.879596
 C         2.457807        -0.541642         1.819280
 O         3.287352        -1.316839         2.737694
 C         1.020536        -0.926866         1.718148
 C         1.026288        -0.265742         0.335431
 C         2.493103        -0.464173         0.146257
 O         3.204915        -0.973536        -0.928049
 H         1.917887         1.727075        -1.689746
 H         0.895152         2.719564        -0.715756
 H         2.616448         2.789315        -0.643392
 H         3.652840         1.352252         1.773449
 H         1.950155         1.614020         2.662054
 H         4.236235        -1.054090         2.861718
 H         0.943992        -2.015577         1.519785
 H         0.351177        -0.698804         2.611896
 H         0.229801        -0.371665        -0.384719
 H         3.399002        -1.943762        -0.789855
