19
Iteration:  2559charge 0 multiplicity 1
 C         1.832386         2.135948        -0.618416
 C         1.886036         0.937103         0.372717
 C         2.220080         1.019690         1.877902
 C         2.379040        -0.565471         1.901546
 O         3.280215        -1.433308         2.593510
 C         0.880950        -0.997108         1.515944
 C         1.084265        -0.367094         0.219687
 C         2.586921        -0.372586         0.275419
 O         3.520986        -0.760804        -0.695679
 H         2.766947         2.651723        -0.418723
 H         1.987298         1.687431        -1.607886
 H         1.020286         2.821052        -0.690111
 H         3.154028         1.664220         1.982263
 H         1.445522         1.506625         2.541407
 H         4.165862        -0.998972         2.585908
 H         0.860797        -2.061323         1.556669
 H         0.146889        -0.455501         2.218375
 H         0.444982        -0.466171        -0.681641
 H         3.522677        -1.716578        -0.632526
