19
Iteration:   214
 C         1.806309         2.041928        -0.566436
 C         1.900600         0.813790         0.329093
 C         2.270891         1.022316         1.796799
 C         2.419227        -0.558918         1.822664
 O         3.348771        -1.178160         2.653776
 C         0.912072        -0.934012         1.581597
 C         0.989074        -0.386331         0.227052
 C         2.610609        -0.494880         0.238597
 O         3.491673        -0.796954        -0.758757
 H         0.840111         2.049373        -1.088221
 H         1.751934         2.861228         0.160837
 H         2.753971         2.221830        -1.205542
 H         3.259959         1.609925         1.924464
 H         1.412327         1.312967         2.478415
 H         3.500984        -0.589960         3.394032
 H         0.987645        -2.091292         1.426053
 H         0.045911        -0.628253         2.282489
 H         0.187486        -0.402836        -0.424374
 H         3.686085        -1.771669        -0.674270
