19
Iteration:  1179
 C         1.717188         2.064656        -0.607314
 C         1.983089         1.012775         0.379265
 C         2.516911         1.034509         1.790160
 C         2.457737        -0.482720         1.841026
 O         3.254980        -1.327748         2.686252
 C         1.034163        -0.979653         1.628118
 C         1.045923        -0.224619         0.353412
 C         2.557807        -0.310037         0.151720
 O         3.281735        -1.093130        -0.826562
 H         0.886913         1.802296        -1.307451
 H         1.297845         2.905150        -0.019674
 H         2.659668         2.273138        -1.153769
 H         3.614041         1.306100         1.758139
 H         1.886803         1.526289         2.409047
 H         3.855019        -0.807341         3.288412
 H         0.998452        -2.134004         1.555232
 H         0.336221        -0.637030         2.475389
 H         0.259411        -0.108278        -0.394961
 H         2.638710        -1.760186        -1.050978
