19
Iteration:  1817charge 0 multiplicity 1
 C         1.821008         2.121279        -0.538042
 C         2.094090         0.931793         0.330417
 C         2.524600         0.935220         1.748190
 C         2.446542        -0.534644         1.749265
 O         3.262226        -1.389249         2.475950
 C         0.854950        -0.778872         1.824868
 C         0.894277        -0.277129         0.391595
 C         2.439580        -0.523135         0.191212
 O         3.387418        -0.871452        -0.737253
 H         2.688270         2.310285        -1.148222
 H         1.046936         1.835948        -1.245684
 H         1.674257         3.017225         0.120879
 H         3.570643         1.455447         1.930526
 H         1.831017         1.258591         2.588990
 H         4.195583        -1.293903         2.113568
 H         0.673956        -1.794183         2.021997
 H         0.296873        -0.187191         2.565359
 H         0.299483        -0.110781        -0.486043
 H         3.196782        -1.803242        -0.901295
