19
Iteration:  4687
 C         1.845682         2.036625        -0.577099
 C         2.005751         1.055857         0.442204
 C         2.231101         0.894664         1.904667
 C         2.332953        -0.621440         1.755163
 O         3.248433        -1.123622         2.640033
 C         1.008746        -1.177343         1.403740
 C         1.062893        -0.234351         0.236569
 C         2.565777        -0.285543         0.243229
 O         3.488740        -0.878742        -0.572746
 H         0.839749         2.484378        -0.634708
 H         2.467982         2.898849        -0.404004
 H         2.034272         1.858785        -1.621294
 H         3.178256         1.208503         2.218207
 H         1.347459         1.218825         2.496199
 H         3.928485        -1.683521         2.174602
 H         0.997265        -2.160439         1.005375
 H         0.151761        -1.063585         2.078072
 H         0.373260        -0.119657        -0.553322
 H         3.029805        -1.599396        -0.970767
