19
Iteration:   706charge 0 multiplicity 1
 C         1.786585         1.993427        -0.706684
 C         1.874414         0.972250         0.408088
 C         2.406112         1.045033         1.870912
 C         2.456774        -0.539503         1.727297
 O         3.250064        -1.282558         2.535718
 C         0.928796        -0.960078         1.701117
 C         0.931577        -0.328681         0.305722
 C         2.488820        -0.427715         0.182066
 O         3.526351        -0.907536        -0.556997
 H         2.710088         2.223607        -1.279054
 H         1.020677         1.626035        -1.448787
 H         1.484906         3.038831        -0.242035
 H         3.393069         1.392810         1.844459
 H         1.881566         1.509705         2.773603
 H         4.087311        -0.874180         2.263299
 H         1.212628        -2.010765         1.709492
 H         0.248975        -0.951060         2.459613
 H         0.151272        -0.453816        -0.456777
 H         3.677705        -0.506444        -1.383427
