19
Iteration:   617
 C         1.746842         2.072793        -0.600961
 C         1.945441         0.942769         0.379006
 C         2.277134         0.988835         1.865946
 C         2.376530        -0.488956         1.928218
 O         3.292685        -1.162296         2.871536
 C         1.073831        -1.113378         1.493119
 C         1.089354        -0.325599         0.218076
 C         2.599804        -0.398944         0.153779
 O         3.277444        -0.960799        -0.890478
 H         1.387380         1.679816        -1.582208
 H         0.974290         2.908267        -0.467452
 H         2.752136         2.622132        -0.825215
 H         3.275172         1.371822         1.994849
 H         1.592730         1.661485         2.564421
 H         4.118478        -0.639287         3.021381
 H         1.403721        -2.103554         1.316861
 H         0.172480        -1.030160         2.000960
 H         0.522076        -0.494434        -0.654635
 H         4.133699        -1.124805        -0.553954
