19
Iteration:  1042charge 0 multiplicity 1
 C         1.787143         2.147548        -0.549901
 C         2.000638         0.977589         0.336466
 C         2.476832         0.963230         1.802586
 C         2.457744        -0.536420         1.739818
 O         3.394343        -1.292933         2.592840
 C         0.909790        -0.866619         1.743472
 C         1.023294        -0.317819         0.327032
 C         2.464468        -0.428772         0.166741
 O         3.277604        -1.092855        -0.717924
 H         2.260190         2.126726        -1.593772
 H         0.750734         2.267390        -0.987793
 H         2.042780         3.167088        -0.189938
 H         3.445228         1.353273         1.655858
 H         1.927145         1.431232         2.544309
 H         3.967885        -0.613991         2.984210
 H         0.572276        -1.829353         1.965524
 H         0.542836        -0.153067         2.474315
 H         0.434338        -0.331932        -0.535408
 H         2.641776        -1.508954        -1.354997
