19
Iteration:   779
 C         1.841616         2.094006        -0.549910
 C         1.867353         0.963535         0.349392
 C         2.317001         0.995779         1.783791
 C         2.528609        -0.523558         1.792405
 O         3.340650        -1.203572         2.689695
 C         0.980398        -0.982649         1.654952
 C         0.961090        -0.300736         0.274981
 C         2.493249        -0.416093         0.130280
 O         3.397405        -1.056224        -0.693587
 H         1.991596         3.003559        -0.008750
 H         2.574812         2.023061        -1.354361
 H         0.864955         2.124826        -0.908416
 H         3.452638         1.365408         1.813401
 H         1.747006         1.511733         2.538506
 H         4.220820        -0.870932         2.543637
 H         0.686944        -2.003631         1.634506
 H         0.175549        -0.628509         2.461504
 H         0.346387        -0.358936        -0.545773
 H         3.031303        -0.965718        -1.582752
