19
Iteration:  2822charge 0 multiplicity 1
 C         1.863702         2.123208        -0.640039
 C         1.947768         1.038692         0.388299
 C         2.210886         1.008071         1.931485
 C         2.387459        -0.604241         1.836531
 O         3.364080        -1.270602         2.637447
 C         0.861351        -1.044550         1.592569
 C         1.136196        -0.300314         0.186005
 C         2.550006        -0.419380         0.168038
 O         3.428877        -0.929710        -0.690811
 H         2.434758         3.067652        -0.268279
 H         2.298021         1.792158        -1.651159
 H         0.805565         2.620804        -0.636161
 H         3.048506         1.504158         2.446367
 H         1.233560         1.367493         2.307100
 H         3.142241        -2.226445         2.458239
 H         0.831091        -2.129438         1.634220
 H        -0.024700        -0.696310         2.236350
 H         0.594037        -0.378916        -0.804717
 H         4.238127        -0.321348        -0.666870
