19
Iteration:  2394
 C         1.939642         2.133903        -0.594922
 C         1.845977         1.011541         0.357657
 C         2.283353         1.055575         1.836690
 C         2.347832        -0.596159         1.808468
 O         3.359360        -1.426455         2.424674
 C         0.879502        -0.981563         1.689498
 C         0.936405        -0.297177         0.240627
 C         2.433579        -0.355820         0.204535
 O         3.542454        -0.903020        -0.586487
 H         0.889319         2.437074        -0.857109
 H         2.417663         3.057852        -0.290654
 H         2.382233         1.791985        -1.493485
 H         3.323018         1.429600         2.122511
 H         1.578307         1.477208         2.548885
 H         4.211116        -1.005156         2.384670
 H         0.905509        -2.024088         1.696824
 H         0.252416        -0.631852         2.478306
 H         0.322328        -0.234647        -0.636842
 H         4.059878        -1.659520        -0.125877
