19
Iteration:  1834charge 0 multiplicity 1
 C         1.911056         2.109709        -0.651266
 C         1.951141         0.979311         0.404671
 C         2.505415         1.027218         1.870275
 C         2.430669        -0.589897         1.778073
 O         3.309723        -1.453184         2.524750
 C         0.948750        -0.806883         1.812553
 C         0.932826        -0.371783         0.300536
 C         2.427827        -0.427628         0.172238
 O         3.312077        -0.840412        -0.734801
 H         2.762319         2.184410        -1.397459
 H         0.892978         2.066872        -1.140398
 H         1.984708         3.008562        -0.028725
 H         3.527427         1.345110         1.884198
 H         1.910580         1.767291         2.427015
 H         4.114443        -1.645156         1.958575
 H         0.426890        -1.832989         1.895783
 H         0.489082        -0.046423         2.466055
 H        -0.012810        -0.370086        -0.331710
 H         3.431258        -1.809852        -0.862598
