19
Iteration:  3294charge 0 multiplicity 1
 C         1.853633         2.089086        -0.566502
 C         2.038715         0.955227         0.468637
 C         2.205973         1.020070         1.933180
 C         2.404623        -0.581180         1.822685
 O         3.233288        -1.145726         2.840774
 C         0.993008        -1.076913         1.465291
 C         1.160594        -0.261247         0.182341
 C         2.629313        -0.461704         0.228765
 O         3.348086        -0.848826        -0.939733
 H         2.402163         2.994603        -0.407204
 H         2.379577         1.716414        -1.441582
 H         0.768436         2.220191        -0.693595
 H         3.108038         1.520063         2.236713
 H         1.353333         1.390464         2.494568
 H         3.037471        -2.081493         2.951969
 H         0.921195        -2.107750         1.232379
 H         0.200048        -0.877492         2.214155
 H         0.520775        -0.194476        -0.678719
 H         3.354391        -1.838958        -0.981963
