19
Iteration:  3665charge 0 multiplicity 1
 C         1.866364         2.168907        -0.650099
 C         1.984316         0.963678         0.392602
 C         2.187027         0.964556         1.866107
 C         2.393028        -0.551856         1.879350
 O         3.259200        -1.154078         2.775857
 C         1.002144        -1.134380         1.512004
 C         1.044652        -0.270386         0.234044
 C         2.601238        -0.416203         0.209148
 O         3.450509        -0.872468        -0.776347
 H         2.729957         2.760561        -0.682784
 H         1.884417         1.725007        -1.650547
 H         0.942411         2.706538        -0.571907
 H         3.058238         1.598466         2.095854
 H         1.411166         1.458505         2.500312
 H         2.995114        -2.057423         2.963518
 H         1.204251        -2.214783         1.182898
 H         0.140169        -1.115933         2.167827
 H         0.443014        -0.328487        -0.630301
 H         3.667294        -1.771329        -0.923972
