19
Iteration:  1097
 C         1.970972         1.998910        -0.768460
 C         1.966939         0.995886         0.398664
 C         2.452203         1.002852         1.883533
 C         2.438404        -0.541624         1.766464
 O         3.408946        -1.334929         2.578887
 C         0.965291        -0.910740         1.770279
 C         0.925512        -0.308825         0.376709
 C         2.347955        -0.400300         0.180523
 O         3.205280        -0.849928        -0.750521
 H         2.559395         1.502995        -1.595919
 H         0.945526         2.318687        -1.082087
 H         2.490740         2.915457        -0.354203
 H         3.362321         1.485173         2.066789
 H         1.768471         1.450366         2.621955
 H         4.260086        -1.040729         2.273846
 H         0.896975        -1.941163         1.597056
 H         0.410987        -0.591604         2.632439
 H         0.182420        -0.374659        -0.344664
 H         3.251685        -1.783216        -0.608512
