19
Iteration:  1568charge 0 multiplicity 1
 C         1.835402         2.205403        -0.461552
 C         2.010156         0.931618         0.391940
 C         2.507916         0.964491         1.817846
 C         2.527955        -0.563078         1.746899
 O         3.344093        -1.244511         2.664738
 C         0.972063        -0.863037         1.747104
 C         1.009703        -0.188095         0.288081
 C         2.494588        -0.422479         0.150751
 O         3.114441        -1.216783        -0.893922
 H         0.700933         2.296144        -0.393793
 H         2.288565         2.976866         0.262558
 H         2.468347         2.357790        -1.415606
 H         3.589736         1.353495         1.803617
 H         1.937067         1.747691         2.499433
 H         4.310022        -1.008197         2.438363
 H         0.961656        -1.938229         1.783927
 H         0.218998        -0.481092         2.380795
 H         0.243010        -0.250007        -0.601243
 H         2.419908        -1.449937        -1.511966
