19
Iteration:  1856charge 0 multiplicity 1
 C         1.929805         1.995624        -0.627210
 C         1.836168         1.007882         0.454933
 C         2.561367         1.021765         1.824745
 C         2.462006        -0.488655         1.808724
 O         3.259006        -1.408340         2.526641
 C         0.932503        -0.957468         1.775129
 C         0.945988        -0.161943         0.357773
 C         2.439501        -0.396000         0.215491
 O         3.305055        -0.876117        -0.798897
 H         2.809870         1.662647        -1.266563
 H         1.000710         2.169820        -1.251798
 H         2.364148         2.911046        -0.181574
 H         3.501730         1.568622         1.746213
 H         1.990418         1.419182         2.740405
 H         4.101315        -1.423414         2.094687
 H         1.162432        -2.109284         1.614403
 H         0.096991        -0.700187         2.468296
 H         0.253579        -0.383410        -0.524568
 H         3.166317        -1.797744        -1.041121
