19
Iteration:  3175
 C         1.880595         2.009974        -0.721298
 C         1.857827         1.003095         0.427239
 C         2.174215         1.068855         1.893946
 C         2.412906        -0.578669         1.731055
 O         3.353982        -1.313901         2.430024
 C         0.955604        -1.054935         1.592863
 C         0.979772        -0.297508         0.256387
 C         2.519667        -0.334444         0.255186
 O         3.599970        -0.800188        -0.475979
 H         2.837886         1.919218        -1.202022
 H         1.214132         1.896342        -1.590904
 H         1.874535         2.969247        -0.168585
 H         3.070883         1.587643         2.316688
 H         1.250012         1.440913         2.516227
 H         3.035455        -2.227322         2.655290
 H         0.768927        -2.082256         1.612247
 H         0.195590        -0.640071         2.391950
 H         0.329949        -0.080571        -0.649255
 H         3.574892        -1.729321        -0.616348
