19
Iteration:   237
 C         1.833349         2.143464        -0.652196
 C         1.880173         0.999923         0.407304
 C         2.283993         0.995492         1.893056
 C         2.399850        -0.527908         1.797691
 O         3.285832        -1.153056         2.611022
 C         0.984410        -1.163837         1.596918
 C         1.019497        -0.436118         0.233910
 C         2.536269        -0.352809         0.147087
 O         3.501446        -0.908428        -0.649358
 H         0.859448         1.946319        -1.113627
 H         1.927234         3.181786        -0.299419
 H         2.727444         1.851600        -1.349146
 H         3.348201         1.504040         1.808580
 H         1.566449         1.538959         2.573233
 H         3.484350        -0.634298         3.408125
 H         1.099742        -2.338432         1.714402
 H         0.332941        -0.705927         2.462559
 H         0.439305        -0.714023        -0.582883
 H         3.142525        -1.526579        -1.339154
