19
Iteration:  3141charge 0 multiplicity 1
 C         1.972400         2.145904        -0.610014
 C         1.807507         0.915284         0.394465
 C         2.317193         1.094828         1.820306
 C         2.357510        -0.546008         1.791176
 O         3.354801        -1.291222         2.499652
 C         0.886526        -1.107935         1.585656
 C         0.975057        -0.441898         0.153429
 C         2.449899        -0.458972         0.246919
 O         3.538868        -0.740367        -0.555075
 H         3.018458         2.281968        -0.772878
 H         1.353887         2.192206        -1.541648
 H         1.684699         3.069310        -0.045578
 H         3.379750         1.383753         1.875278
 H         1.571445         1.551969         2.573347
 H         3.159367        -1.176742         3.470872
 H         1.037805        -2.137960         1.627034
 H         0.098881        -0.608953         2.275995
 H         0.390543        -0.563960        -0.807424
 H         3.587011        -1.683425        -0.602598
