19
Iteration:   396
 C         1.774071         2.091014        -0.613351
 C         1.845532         0.958469         0.347869
 C         2.163513         1.020258         1.895796
 C         2.416604        -0.510207         1.821784
 O         3.329461        -1.131709         2.626011
 C         1.022842        -1.152095         1.530480
 C         1.120580        -0.413552         0.223038
 C         2.647872        -0.382507         0.279085
 O         3.409853        -0.965244        -0.722127
 H         1.691513         3.095426        -0.142116
 H         2.732258         2.037175        -1.158386
 H         1.008211         2.068730        -1.320993
 H         2.993631         1.664098         2.016124
 H         1.244760         1.347468         2.456907
 H         3.286587        -0.755118         3.530780
 H         1.142691        -2.200607         1.423094
 H         0.009317        -0.880788         2.106702
 H         0.742426        -0.712475        -0.701004
 H         4.200405        -0.439465        -0.737329
