19
Iteration:   223
 C         1.809601         2.016390        -0.558496
 C         1.911231         0.887919         0.373477
 C         2.268240         1.062810         1.828647
 C         2.402703        -0.507927         1.810506
 O         3.345289        -1.174566         2.652776
 C         0.963879        -1.036076         1.633864
 C         1.005913        -0.431864         0.182956
 C         2.500574        -0.445489         0.148907
 O         3.534391        -0.838765        -0.728370
 H         0.952138         2.197033        -1.201228
 H         1.857552         2.927792         0.041790
 H         2.653348         2.109817        -1.258750
 H         3.240362         1.449047         2.071014
 H         1.512434         1.445630         2.573331
 H         3.470681        -0.605848         3.419978
 H         0.894649        -2.108643         1.527518
 H         0.187212        -0.726842         2.206028
 H         0.253868        -0.213497        -0.564521
 H         3.337133        -1.795494        -0.894484
