19
Iteration:  1432charge 0 multiplicity 1
 C         1.840099         2.102784        -0.660752
 C         1.887547         1.031709         0.419842
 C         2.513317         1.051672         1.898731
 C         2.499839        -0.444419         1.788286
 O         3.267821        -1.358132         2.512488
 C         0.987640        -0.985540         1.747773
 C         0.999764        -0.225916         0.413691
 C         2.453091        -0.439865         0.161579
 O         3.290136        -1.029326        -0.761761
 H         2.385008         3.032327        -0.599890
 H         2.130681         1.636939        -1.611011
 H         0.856721         2.524173        -0.854745
 H         3.583734         1.491844         1.918434
 H         2.001228         1.495659         2.720075
 H         4.200028        -1.218462         2.395682
 H         1.104644        -2.044661         1.613694
 H         0.391356        -0.713361         2.534793
 H         0.139655        -0.253441        -0.359301
 H         2.870044        -1.823588        -1.242351
