19
Iteration:  2665
 C         1.855236         2.113775        -0.410613
 C         1.890286         0.966950         0.425903
 C         2.181337         0.964571         1.882194
 C         2.416528        -0.532389         1.807874
 O         3.226865        -1.054940         2.809654
 C         1.019201        -1.079930         1.464343
 C         1.036976        -0.309156         0.167714
 C         2.527841        -0.444920         0.082699
 O         3.646084        -0.980382        -0.797004
 H         2.830334         2.273605        -1.074168
 H         1.063625         2.041068        -1.229972
 H         1.617166         3.016126         0.188606
 H         3.074884         1.485549         2.268952
 H         1.407552         1.205561         2.627446
 H         3.017021        -2.010448         2.630027
 H         0.908975        -2.221752         1.316369
 H         0.198705        -0.921548         2.171168
 H         0.343794        -0.478418        -0.699306
 H         3.226454        -0.948170        -1.682186
