19
Iteration:  3379
 C         1.834148         2.082878        -0.660334
 C         1.888598         0.996126         0.345271
 C         2.300186         1.005564         1.853690
 C         2.400042        -0.543858         1.723958
 O         3.282642        -1.411388         2.490804
 C         0.873974        -0.905230         1.687264
 C         0.957971        -0.366567         0.214521
 C         2.462957        -0.369295         0.151856
 O         3.656366        -0.892130        -0.365479
 H         2.764783         2.627837        -0.797039
 H         1.568383         1.483961        -1.579723
 H         1.125134         2.922254        -0.516879
 H         3.217468         1.513732         2.128336
 H         1.487923         1.259861         2.565129
 H         4.195684        -1.150475         2.172684
 H         0.647494        -2.041431         1.517861
 H         0.192633        -0.374388         2.296645
 H         0.236918        -0.558047        -0.545418
 H         3.700298        -0.614621        -1.275269
