19
Iteration:  1705
 C         2.051321         2.098554        -0.588678
 C         1.896746         0.965156         0.404612
 C         2.604728         0.994774         1.687678
 C         2.447775        -0.581480         1.790705
 O         3.285805        -1.317546         2.642780
 C         0.934727        -1.000808         1.868270
 C         0.935426        -0.359176         0.400493
 C         2.406800        -0.431213         0.198774
 O         3.171261        -0.798651        -0.884688
 H         2.176286         3.118665        -0.108866
 H         2.938840         1.988048        -1.282184
 H         1.175336         2.092492        -1.262840
 H         3.648522         1.336609         1.489140
 H         2.176478         1.511555         2.638991
 H         4.148309        -0.954374         2.491544
 H         0.699775        -2.061429         1.772458
 H         0.253337        -0.513192         2.532234
 H         0.145330        -0.369328        -0.378653
 H         2.755743        -1.506005        -1.406398
