19
Iteration:  1109charge 0 multiplicity 1
 C         1.961579         1.979361        -0.718608
 C         1.912009         0.899758         0.377099
 C         2.423358         1.011477         1.908007
 C         2.526635        -0.540369         1.885311
 O         3.424040        -1.299505         2.593421
 C         0.895420        -0.872902         1.733069
 C         0.888928        -0.257294         0.337662
 C         2.425305        -0.508623         0.247763
 O         3.213081        -0.818162        -0.847428
 H         2.456825         1.693454        -1.698933
 H         0.967368         2.376370        -1.044337
 H         2.618204         2.863735        -0.392226
 H         3.417340         1.409330         1.837300
 H         1.825817         1.347681         2.713689
 H         4.320525        -1.248851         2.144044
 H         0.633110        -1.900076         1.891743
 H         0.227657        -0.280011         2.364790
 H         0.057213        -0.193082        -0.372432
 H         3.646768        -1.707232        -0.866837
