19
Iteration:  1484charge 0 multiplicity 1
 C         1.970402         1.957441        -0.655740
 C         1.847891         0.891768         0.404308
 C         2.678545         1.000423         1.863920
 C         2.473213        -0.579135         1.790471
 O         3.320495        -1.379143         2.511116
 C         0.878803        -0.817000         1.854354
 C         0.838473        -0.342632         0.416234
 C         2.393002        -0.410017         0.165904
 O         3.270918        -0.717900        -0.827379
 H         1.546371         2.951864        -0.455528
 H         3.036347         2.060578        -0.978883
 H         1.391659         1.687151        -1.545642
 H         3.611157         1.488409         1.564935
 H         2.196870         1.604629         2.667947
 H         4.189073        -1.260593         2.152881
 H         0.599212        -1.940617         1.943115
 H         0.248608        -0.107965         2.618039
 H         0.039272        -0.614936        -0.390422
 H         3.476617        -1.708723        -0.835395
