19
Iteration:  1803
 C         1.816894         2.090819        -0.510921
 C         1.962550         0.908967         0.397806
 C         2.577073         1.041992         1.826254
 C         2.422263        -0.579563         1.788090
 O         3.259153        -1.381443         2.484786
 C         0.919779        -0.805090         1.749109
 C         0.945496        -0.162870         0.351850
 C         2.436941        -0.491995         0.152832
 O         3.417089        -0.998014        -0.774252
 H         2.744431         2.544773        -0.996788
 H         1.024388         2.001881        -1.355636
 H         1.241632         2.898072         0.039474
 H         3.606593         1.232608         1.746526
 H         2.068123         1.724983         2.556890
 H         4.142045        -1.045435         2.406989
 H         0.650021        -1.877458         1.662006
 H         0.326794        -0.357338         2.524897
 H        -0.063645        -0.157551        -0.186131
 H         3.240349        -1.913523        -1.076462
