19
Iteration:   752
 C         1.893997         2.068453        -0.691926
 C         1.947517         0.947828         0.353407
 C         2.300593         1.066766         1.946427
 C         2.423812        -0.449092         1.833454
 O         3.343983        -1.223879         2.491926
 C         0.962047        -0.998916         1.702539
 C         0.966908        -0.373489         0.313394
 C         2.475723        -0.433529         0.228438
 O         3.419187        -1.002613        -0.654543
 H         2.490502         2.962713        -0.354162
 H         2.245616         1.653285        -1.641318
 H         0.784392         2.481571        -0.643499
 H         3.277382         1.510976         2.172980
 H         1.456925         1.436659         2.650517
 H         4.189365        -1.173768         2.047269
 H         0.718675        -2.114034         1.755201
 H         0.250740        -0.696840         2.367163
 H         0.399131        -0.656694        -0.720726
 H         3.103667        -0.704713        -1.499560
