19
Iteration:  1454
 C         1.896560         1.934006        -0.662697
 C         1.914868         0.892353         0.373761
 C         2.475275         1.041036         1.854010
 C         2.476368        -0.598647         1.819762
 O         3.354907        -1.402178         2.506418
 C         0.972374        -0.854569         1.819260
 C         0.890660        -0.169135         0.399674
 C         2.398884        -0.410376         0.163882
 O         3.334055        -0.847000        -0.725941
 H         2.106030         2.922746        -0.280165
 H         2.545930         1.800249        -1.514108
 H         0.953183         2.094573        -1.157657
 H         3.505989         1.523083         1.648110
 H         2.000007         1.679371         2.550069
 H         4.249421        -1.237219         2.082640
 H         0.657697        -1.887765         1.738800
 H         0.436578        -0.383869         2.633421
 H        -0.018910        -0.088320        -0.277765
 H         3.010271        -1.442774        -1.362351
