19
Iteration:   303
 C         1.732868         2.141835        -0.650016
 C         1.878949         0.884834         0.331252
 C         2.260116         0.962829         1.798341
 C         2.398942        -0.546560         1.860568
 O         3.263575        -1.166321         2.719902
 C         0.984292        -1.028498         1.658907
 C         1.003851        -0.383392         0.177690
 C         2.612508        -0.457720         0.205815
 O         3.515406        -0.918369        -0.667507
 H         0.646324         2.371424        -0.721052
 H         2.307641         2.956454        -0.177165
 H         2.130262         1.918070        -1.740685
 H         3.345421         1.433595         1.820020
 H         1.585217         1.354067         2.600961
 H         4.104346        -1.184888         2.223593
 H         0.828888        -2.137310         1.864594
 H         0.284530        -0.506188         2.245325
 H         0.501235        -0.545188        -0.805040
 H         4.112096        -0.176822        -0.976980
