19
Iteration:  4094charge 0 multiplicity 1
 C         1.790805         1.972804        -0.670459
 C         1.882033         0.977756         0.421409
 C         2.202313         0.968231         1.843955
 C         2.321472        -0.572708         1.805573
 O         3.184646        -1.371528         2.517821
 C         0.906388        -1.025190         1.593265
 C         1.116101        -0.433016         0.162128
 C         2.586965        -0.364694         0.268190
 O         3.730808        -0.515746        -0.456291
 H         2.398395         2.905068        -0.601286
 H         1.968722         1.569688        -1.651532
 H         0.812603         2.449558        -0.744649
 H         3.219239         1.413449         1.952169
 H         1.487527         1.335847         2.587527
 H         3.273929        -2.208990         1.999285
 H         0.723619        -2.094451         1.621469
 H         0.175122        -0.517030         2.239993
 H         0.654539        -0.525908        -0.876867
 H         3.745889        -1.380123        -0.832113
