19
Iteration:  3138charge 0 multiplicity 1
 C         1.954210         2.136608        -0.596171
 C         1.816922         0.931181         0.385257
 C         2.327478         1.068291         1.800822
 C         2.344301        -0.565113         1.798805
 O         3.364244        -1.290228         2.526974
 C         0.872246        -1.088327         1.565650
 C         0.990143        -0.441989         0.154486
 C         2.490787        -0.462384         0.242836
 O         3.513439        -0.723662        -0.569460
 H         3.050133         2.244160        -0.715527
 H         1.377901         2.240794        -1.533370
 H         1.613405         3.056087        -0.085584
 H         3.372696         1.370060         1.962436
 H         1.613960         1.540305         2.487275
 H         3.185159        -1.043527         3.459126
 H         0.966426        -2.236201         1.653623
 H         0.118397        -0.596379         2.207068
 H         0.357934        -0.567283        -0.703636
 H         3.522145        -1.707465        -0.523890
