19
Iteration:  3882charge 0 multiplicity 1
 C         1.780614         1.990448        -0.659902
 C         1.886807         0.964490         0.427529
 C         2.187388         0.965078         1.958445
 C         2.412090        -0.531138         1.806219
 O         3.219663        -1.361988         2.588185
 C         0.969934        -1.013106         1.480965
 C         1.032999        -0.350790         0.150195
 C         2.615498        -0.351467         0.197451
 O         3.631223        -0.674924        -0.607248
 H         2.675449         2.603587        -0.487782
 H         2.020265         1.455088        -1.644447
 H         0.887089         2.653181        -0.690553
 H         2.992708         1.672220         2.144965
 H         1.366388         1.199215         2.633674
 H         3.261713        -1.146853         3.557857
 H         1.012126        -2.173342         1.521305
 H         0.173476        -0.774166         2.124413
 H         0.381150        -0.276815        -0.801216
 H         3.769732        -1.681109        -0.632325
