19
Iteration:  3122
 C         1.904013         2.106606        -0.524354
 C         1.917225         0.887055         0.350155
 C         2.277169         0.898555         1.831394
 C         2.381510        -0.611148         1.825885
 O         3.298343        -1.229733         2.662983
 C         0.847989        -1.005730         1.554390
 C         1.041832        -0.385955         0.195024
 C         2.539651        -0.377863         0.207868
 O         3.496574        -0.749897        -0.736989
 H         2.909292         2.533160        -0.716413
 H         1.473681         1.733347        -1.454866
 H         1.310591         2.915466        -0.062514
 H         3.316652         1.264923         1.730317
 H         1.645749         1.356094         2.601248
 H         3.608566        -0.619302         3.386603
 H         0.606003        -2.044688         1.327190
 H         0.127631        -0.513976         2.214812
 H         0.350968        -0.436442        -0.691651
 H         3.792686        -1.636499        -0.683553
