19
Iteration:  2108
 C         1.880173         2.168666        -0.503626
 C         1.887265         0.918656         0.416134
 C         2.435407         1.055420         1.790617
 C         2.530185        -0.495667         1.756034
 O         3.147042        -1.337930         2.718617
 C         1.018398        -0.948175         1.713655
 C         1.103207        -0.303772         0.339096
 C         2.546983        -0.546898         0.177554
 O         3.303502        -0.930607        -0.993837
 H         2.270107         3.057777         0.135983
 H         2.432369         1.909946        -1.406766
 H         0.844365         2.479883        -0.762440
 H         3.485648         1.475054         1.869057
 H         1.685974         1.465647         2.500912
 H         3.381605        -0.652213         3.416914
 H         1.026991        -2.065222         1.697686
 H         0.323115        -0.545107         2.388905
 H         0.542175        -0.283170        -0.614847
 H         2.750387        -1.716838        -1.348618
