19
Iteration:  2284charge 0 multiplicity 1
 C         1.881848         2.074691        -0.524490
 C         1.875924         0.870006         0.394666
 C         2.430265         1.068206         1.887494
 C         2.515541        -0.479138         1.905866
 O         3.064204        -1.352858         2.796921
 C         1.029875        -0.914560         1.637151
 C         1.062006        -0.410343         0.220956
 C         2.579460        -0.452760         0.114062
 O         3.353436        -0.807371        -0.998863
 H         1.750000         1.706791        -1.630637
 H         1.123131         2.861799        -0.256759
 H         2.855932         2.520910        -0.326909
 H         3.300566         1.736559         1.875910
 H         1.830713         1.443266         2.638420
 H         4.006349        -0.995738         2.848319
 H         1.083034        -1.985146         1.637180
 H         0.312251        -0.660030         2.391548
 H         0.397817        -0.469065        -0.644354
 H         2.923397        -1.654997        -1.178497
