19
Iteration:  1447
 C         1.864478         1.969736        -0.651391
 C         1.925632         0.976711         0.442657
 C         2.514125         1.096663         1.796786
 C         2.500529        -0.575565         1.767371
 O         3.338825        -1.403695         2.519343
 C         0.970300        -0.870852         1.773654
 C         0.830595        -0.186577         0.423733
 C         2.405462        -0.407917         0.218666
 O         3.376418        -0.920930        -0.765622
 H         2.358372         2.879728        -0.219133
 H         2.521446         1.645337        -1.515829
 H         0.816138         2.059290        -1.083258
 H         3.488919         1.533023         1.824389
 H         1.796803         1.547480         2.586755
 H         4.241614        -1.240668         2.181584
 H         0.772791        -1.930063         1.646693
 H         0.285922        -0.562672         2.593144
 H         0.060984        -0.223786        -0.247386
 H         2.851310        -1.526307        -1.326825
