19
Iteration:   627charge 0 multiplicity 1
 C         1.740822         2.098329        -0.604581
 C         1.987532         0.969521         0.374476
 C         2.342222         1.031987         1.818930
 C         2.432578        -0.489248         1.942791
 O         3.203042        -1.132057         2.828985
 C         1.031672        -1.159186         1.574230
 C         1.095449        -0.377614         0.187611
 C         2.570678        -0.388347         0.147265
 O         3.311828        -0.961301        -0.887718
 H         1.715565         1.549471        -1.573870
 H         0.777377         2.613302        -0.219402
 H         2.610189         2.839298        -0.574028
 H         3.310417         1.497836         1.991402
 H         1.533769         1.370880         2.525204
 H         4.112559        -0.867494         2.952885
 H         1.178357        -2.183721         1.411625
 H         0.242850        -1.019432         2.294449
 H         0.389169        -0.526714        -0.628465
 H         4.242556        -0.988547        -0.775345
