19
Iteration:   941charge 0 multiplicity 1
 C         1.919482         1.906643        -0.633402
 C         2.016699         0.902783         0.409361
 C         2.392204         0.986443         1.855873
 C         2.449942        -0.555860         1.755045
 O         3.364456        -1.255550         2.536896
 C         0.945763        -0.845968         1.802596
 C         0.933450        -0.243943         0.368424
 C         2.446794        -0.479156         0.195416
 O         3.281539        -0.821948        -0.808174
 H         1.551634         1.463966        -1.649414
 H         1.330324         2.844767        -0.384062
 H         2.842009         2.345276        -1.074244
 H         3.314924         1.465227         1.876463
 H         1.659048         1.355849         2.547793
 H         4.121328        -0.772737         2.962851
 H         0.837565        -1.912564         1.748350
 H         0.313266        -0.472648         2.620208
 H         0.155046        -0.345917        -0.466623
 H         3.057614        -1.765306        -1.127923
