19
Iteration:   799charge 0 multiplicity 1
 C         1.738954         2.203478        -0.618386
 C         1.921880         0.980362         0.327799
 C         2.509994         0.989449         1.776225
 C         2.446891        -0.537392         1.755392
 O         3.252258        -1.228632         2.744764
 C         1.047249        -0.977677         1.657598
 C         0.979155        -0.344490         0.282898
 C         2.485041        -0.483533         0.166932
 O         3.386361        -1.032804        -0.722867
 H         1.548785         3.015597         0.103663
 H         2.699720         2.386820        -1.078741
 H         0.905420         2.269931        -1.242819
 H         3.588534         1.529155         1.697473
 H         1.827917         1.409683         2.535454
 H         4.017384        -0.700652         3.086064
 H         1.120681        -2.053229         1.580541
 H         0.319088        -0.900862         2.461848
 H         0.197586        -0.523464        -0.382325
 H         2.778819        -1.205057        -1.537151
