19
Iteration:  2900charge 0 multiplicity 1
 C         1.820306         2.185363        -0.436596
 C         1.922277         0.946706         0.374849
 C         2.293373         1.012434         1.779211
 C         2.444270        -0.515010         1.826369
 O         3.147188        -1.207933         2.814687
 C         0.996759        -1.091087         1.535463
 C         1.125363        -0.423389         0.157437
 C         2.654074        -0.419981         0.139908
 O         3.408655        -0.926220        -0.848275
 H         2.840777         2.254844        -0.883974
 H         1.072457         2.258273        -1.328371
 H         1.491294         3.105593         0.232714
 H         3.216604         1.579331         1.851452
 H         1.635421         1.500869         2.542353
 H         2.502619        -1.838305         3.184022
 H         0.973343        -2.139578         1.455271
 H         0.192116        -0.905195         2.343444
 H         0.579779        -0.381156        -0.795017
 H         4.297062        -0.616578        -0.832980
