19
Iteration:  3699charge 0 multiplicity 1
 C         1.939241         2.065231        -0.516268
 C         1.811003         0.890842         0.383263
 C         2.275407         0.961373         1.807281
 C         2.379696        -0.565431         1.756187
 O         3.296298        -1.167347         2.527564
 C         0.864644        -1.008041         1.552700
 C         1.009787        -0.440498         0.208844
 C         2.560745        -0.425797         0.219389
 O         3.563882        -0.733621        -0.616875
 H         2.546384         2.812406        -0.068758
 H         2.344416         1.587286        -1.394048
 H         1.098664         2.670037        -0.797070
 H         3.323546         1.319593         1.535971
 H         1.581047         1.308845         2.656088
 H         2.904266        -1.283349         3.401454
 H         0.727717        -2.118803         1.727092
 H         0.191068        -0.468011         2.252230
 H         0.343144        -0.511500        -0.598375
 H         3.866251        -1.609791        -0.475320
