19
Iteration:   247
 C         1.830252         2.150805        -0.715357
 C         1.833523         1.001619         0.378712
 C         2.283886         1.000151         1.846314
 C         2.402853        -0.552458         1.766645
 O         3.289631        -1.189441         2.613809
 C         1.033259        -1.117641         1.608883
 C         1.033360        -0.438664         0.264198
 C         2.587381        -0.324219         0.294915
 O         3.469600        -0.937688        -0.614669
 H         0.892355         2.190580        -1.287836
 H         1.908840         3.188837        -0.371774
 H         2.612115         2.045624        -1.564234
 H         3.346453         1.408254         2.026306
 H         1.658472         1.276198         2.738104
 H         3.489932        -0.548848         3.293532
 H         1.165979        -2.221959         1.310143
 H         0.174822        -1.067819         2.248575
 H         0.444911        -0.716892        -0.534986
 H         2.880908        -1.139996        -1.414788
