19
Iteration:  1786
 C         1.763180         2.184663        -0.543620
 C         1.944092         1.038539         0.432751
 C         2.620623         1.028066         1.779922
 C         2.509676        -0.535054         1.745028
 O         3.285898        -1.442032         2.614167
 C         0.956151        -0.933085         1.658255
 C         0.930854        -0.227709         0.325707
 C         2.446848        -0.359259         0.127788
 O         3.273485        -1.061393        -0.743925
 H         2.734654         2.614854        -0.560470
 H         1.581402         1.728680        -1.472263
 H         1.059940         2.964739        -0.241403
 H         3.713720         1.392956         1.574345
 H         2.189922         1.564862         2.629357
 H         4.084437        -0.948653         2.816401
 H         0.836605        -2.013002         1.546192
 H         0.312044        -0.512749         2.495994
 H         0.309923        -0.077644        -0.504376
 H         2.935479        -2.005788        -0.766095
