19
Iteration:  1062
 C         1.849758         2.047258        -0.643888
 C         1.892222         0.988197         0.372652
 C         2.510795         1.116923         1.844598
 C         2.507975        -0.489368         1.814950
 O         3.369983        -1.349154         2.501628
 C         1.008808        -0.901892         1.715461
 C         0.941254        -0.256110         0.338588
 C         2.400298        -0.449847         0.231653
 O         3.282892        -1.065553        -0.698831
 H         2.560882         2.003148        -1.534551
 H         0.906308         2.413312        -1.135483
 H         2.255933         2.955827        -0.192628
 H         3.500338         1.453222         1.824989
 H         1.771000         1.602886         2.581708
 H         3.966357        -0.766001         2.953204
 H         1.060322        -1.918853         1.420700
 H         0.176250        -0.819396         2.408761
 H         0.083268        -0.322964        -0.329677
 H         2.712124        -1.621032        -1.174542
