19
Iteration:  2618
 C         1.808547         2.151229        -0.599379
 C         1.890005         0.944813         0.439041
 C         2.316051         1.069424         1.929205
 C         2.373756        -0.605125         1.765571
 O         3.329110        -1.256819         2.592694
 C         0.875324        -1.069522         1.451306
 C         0.944820        -0.381359         0.103004
 C         2.512858        -0.372522         0.253860
 O         3.618613        -0.829856        -0.451096
 H         2.716354         2.232697        -1.138975
 H         1.076232         2.034527        -1.370429
 H         1.596183         3.105354        -0.105990
 H         3.307418         1.526560         1.870098
 H         1.673946         1.680327         2.622503
 H         3.678901        -2.023791         2.068604
 H         0.801442        -2.180898         1.436048
 H         0.215956        -0.788808         2.181190
 H         0.553755        -0.665929        -0.875204
 H         3.336657        -1.354850        -1.294188
