19
Iteration:  2780charge 0 multiplicity 1
 C         1.872582         2.031234        -0.531000
 C         1.846120         0.993345         0.471217
 C         2.435900         1.059176         1.815965
 C         2.366594        -0.502233         1.761435
 O         3.299688        -1.268811         2.539253
 C         0.914694        -1.059485         1.544543
 C         0.985480        -0.407931         0.145546
 C         2.431078        -0.386525         0.183750
 O         3.530698        -0.808123        -0.587526
 H         2.343049         2.960135        -0.191628
 H         2.590217         1.677224        -1.320178
 H         0.865630         2.361460        -0.946367
 H         3.409706         1.527336         1.822622
 H         1.766362         1.385550         2.606823
 H         2.951211        -2.167844         2.733390
 H         0.786758        -2.077304         1.351940
 H         0.083812        -0.872607         2.327186
 H         0.336231        -0.401536        -0.784165
 H         4.124370        -0.870377         0.225832
