19
Iteration:  2993
 C         1.931908         2.096999        -0.553564
 C         1.828418         1.017379         0.382176
 C         2.274838         0.982110         1.919802
 C         2.360878        -0.574884         1.764063
 O         3.365213        -1.299332         2.470036
 C         0.857111        -1.032482         1.567530
 C         1.017659        -0.414844         0.186288
 C         2.467493        -0.361100         0.201371
 O         3.496269        -0.827160        -0.589650
 H         2.908941         2.623509        -0.262423
 H         2.132698         1.822813        -1.574337
 H         1.100798         2.805994        -0.635548
 H         3.286855         1.438369         1.862202
 H         1.749068         1.669909         2.539742
 H         3.822452        -0.768161         3.138266
 H         0.571887        -2.188694         1.500847
 H         0.095124        -0.611679         2.167038
 H         0.453288        -0.843252        -0.722250
 H         4.002750        -1.468487         0.036236
