19
Iteration:  4312
 C         1.949970         2.075223        -0.523467
 C         1.836242         0.931798         0.417505
 C         2.217257         0.929900         1.884779
 C         2.334726        -0.562888         1.739941
 O         3.281874        -1.177353         2.611500
 C         1.016933        -1.217245         1.419824
 C         0.971461        -0.439006         0.071951
 C         2.473014        -0.400287         0.183339
 O         3.592239        -0.570391        -0.523050
 H         2.921607         2.106270        -1.130768
 H         1.171806         2.152413        -1.293031
 H         2.016910         3.056986        -0.041536
 H         3.220711         1.379166         2.062085
 H         1.442318         1.300617         2.551053
 H         2.834851        -1.540019         3.391581
 H         1.271104        -2.373003         1.344963
 H         0.168574        -1.011369         2.008452
 H         0.149319        -0.403444        -0.605680
 H         3.995752        -1.484315        -0.277472
