19
Iteration:  4878
 C         1.784436         2.135335        -0.489160
 C         1.897969         0.976132         0.416480
 C         2.377382         0.996326         1.803845
 C         2.347827        -0.565484         1.765647
 O         3.177236        -1.339634         2.600179
 C         0.910473        -1.118607         1.513103
 C         1.045894        -0.258821         0.198883
 C         2.544979        -0.345903         0.157107
 O         3.624436        -0.855312        -0.523917
 H         0.736088         2.365064        -0.794642
 H         2.051997         3.074311         0.081068
 H         2.249399         2.035303        -1.493190
 H         3.505352         1.331677         1.706769
 H         1.751890         1.461611         2.524384
 H         4.014979        -0.947246         2.329808
 H         0.956025        -2.145443         1.183480
 H         0.042617        -1.051171         2.136819
 H         0.355174        -0.093501        -0.543860
 H         3.376188        -1.724415        -0.977509
