19
Iteration:  2560
 C         1.836347         2.135790        -0.625137
 C         1.888032         0.937254         0.373619
 C         2.219471         1.025548         1.879582
 C         2.386939        -0.557879         1.900181
 O         3.285288        -1.440691         2.595127
 C         0.872700        -1.001387         1.524174
 C         1.083227        -0.365721         0.214769
 C         2.588045        -0.372507         0.269535
 O         3.518808        -0.761021        -0.684962
 H         2.740372         2.644991        -0.452821
 H         1.951676         1.693648        -1.609026
 H         1.020534         2.821456        -0.675148
 H         3.156387         1.654461         1.994365
 H         1.421457         1.479057         2.545971
 H         4.152642        -0.999166         2.546175
 H         0.828602        -2.049995         1.542376
 H         0.146477        -0.491571         2.192449
 H         0.454582        -0.429138        -0.685542
 H         3.536043        -1.697112        -0.644618
