19
Iteration:  2289charge 0 multiplicity 1
 C         1.862724         2.069481        -0.461231
 C         1.877564         0.913191         0.409107
 C         2.379356         1.063286         1.839357
 C         2.477649        -0.501534         1.877400
 O         3.059773        -1.342439         2.823890
 C         1.067310        -0.914611         1.655110
 C         1.076195        -0.374639         0.222106
 C         2.561653        -0.504114         0.083018
 O         3.409524        -0.819810        -1.026587
 H         1.690504         1.715918        -1.435780
 H         1.185407         2.856075        -0.150925
 H         2.935595         2.427403        -0.542329
 H         3.332054         1.613772         1.708576
 H         1.758769         1.671038         2.634813
 H         3.967334        -1.079402         2.932392
 H         1.138486        -2.030315         1.689208
 H         0.433952        -0.511554         2.514162
 H         0.353309        -0.477859        -0.589761
 H         2.831360        -1.588575        -1.264996
