19
Iteration:   736charge 0 multiplicity 1
 C         1.872090         2.017322        -0.682612
 C         1.859396         0.995610         0.391456
 C         2.254685         1.077069         1.818209
 C         2.458166        -0.574760         1.785363
 O         3.381940        -1.318804         2.531223
 C         0.960566        -0.980750         1.687313
 C         0.978206        -0.318922         0.280917
 C         2.514587        -0.359916         0.259342
 O         3.397708        -0.944887        -0.542936
 H         2.803283         2.587153        -0.699157
 H         1.822573         1.563857        -1.727600
 H         0.997714         2.689467        -0.741546
 H         3.221029         1.612411         1.911979
 H         1.622543         1.501752         2.544401
 H         4.173333        -1.190387         1.971771
 H         1.059931        -2.038477         1.570895
 H         0.227526        -0.675257         2.578608
 H         0.253186        -0.400515        -0.430645
 H         3.342435        -0.689618        -1.503484
