19
Iteration:  3363
 C         1.870305         2.065108        -0.655147
 C         1.872468         0.916927         0.369013
 C         2.323604         1.001444         1.830009
 C         2.315453        -0.575874         1.815644
 O         3.284076        -1.329176         2.362300
 C         0.780174        -0.908643         1.641762
 C         0.957542        -0.423639         0.217520
 C         2.507722        -0.504723         0.279688
 O         3.682517        -0.773470        -0.374030
 H         2.791544         2.708807        -0.518721
 H         2.094537         1.867667        -1.697725
 H         0.957716         2.651594        -0.436863
 H         3.404262         1.342748         1.739399
 H         1.820531         1.673565         2.576516
 H         4.130174        -1.164157         1.901433
 H         0.539224        -1.892083         1.975967
 H         0.228452        -0.184792         2.361433
 H         0.235806        -0.363340        -0.637825
 H         3.576327        -0.839228        -1.293602
