19
Iteration:  4199charge 0 multiplicity 1
 C         1.819022         2.228097        -0.364999
 C         1.902342         0.909905         0.380489
 C         2.145725         0.861252         1.847393
 C         2.428289        -0.604252         1.724435
 O         2.986383        -1.073959         2.899151
 C         1.083673        -1.224555         1.475557
 C         1.169177        -0.392960         0.085419
 C         2.690517        -0.413629         0.134075
 O         3.566308        -0.765926        -0.807349
 H         2.649971         2.852913        -0.031051
 H         1.975049         2.088787        -1.512596
 H         0.804955         2.746690        -0.134221
 H         3.083148         1.417130         2.017307
 H         1.421013         1.218806         2.540227
 H         3.952377        -0.926046         2.833876
 H         1.126450        -2.325362         1.135741
 H         0.295316        -0.938023         2.146407
 H         0.542225        -0.564541        -0.796657
 H         3.211652        -1.476929        -1.297111
