19
Iteration:   907
 C         1.997117         1.981360        -0.675370
 C         1.812044         0.951452         0.386804
 C         2.437170         1.006768         1.763165
 C         2.515166        -0.481995         1.758099
 O         3.410247        -1.335923         2.524224
 C         0.855787        -0.934835         1.785558
 C         0.883431        -0.375597         0.345126
 C         2.362121        -0.362346         0.218109
 O         3.351419        -0.819401        -0.662227
 H         1.105662         1.957283        -1.434813
 H         2.109287         3.032141        -0.283745
 H         2.959792         1.680196        -1.176731
 H         3.372297         1.360268         1.548435
 H         2.074953         1.622250         2.576761
 H         4.179052        -0.709110         2.726310
 H         0.962362        -2.023273         1.763292
 H         0.362848        -0.605711         2.652745
 H         0.073737        -0.529487        -0.306876
 H         3.024380        -1.700115        -1.080075
