19
Iteration:  2339
 C         1.824625         2.119092        -0.515094
 C         1.920497         0.975943         0.414371
 C         2.447606         0.992362         1.856995
 C         2.436490        -0.574283         1.830960
 O         3.237798        -1.239308         2.678541
 C         0.882386        -1.064097         1.479360
 C         1.043743        -0.277455         0.273071
 C         2.556710        -0.430675         0.158315
 O         3.402371        -0.909859        -0.768540
 H         0.834951         2.042174        -1.084111
 H         1.773803         3.007644         0.142663
 H         2.586905         2.166653        -1.259240
 H         3.531241         1.301429         1.837554
 H         2.000415         1.542169         2.653693
 H         3.965163        -0.663219         2.995210
 H         0.746592        -2.100052         1.314270
 H         0.109785        -0.653598         2.094763
 H         0.442287        -0.253881        -0.594544
 H         3.192056        -1.879242        -0.881790
