19
Iteration:  4568charge 0 multiplicity 1
 C         1.721084         2.015138        -0.631546
 C         2.022745         1.015056         0.461791
 C         2.447364         1.005379         1.958529
 C         2.423407        -0.564609         1.855018
 O         3.053578        -1.359760         2.814755
 C         1.037535        -1.178646         1.440204
 C         1.076442        -0.335481         0.125557
 C         2.590789        -0.303481         0.159438
 O         3.430935        -0.711954        -0.858014
 H         0.646592         2.284206        -0.714035
 H         2.108428         2.986811        -0.278699
 H         2.105108         1.974488        -1.674268
 H         3.468904         1.135127         1.998061
 H         1.953832         1.530785         2.757566
 H         3.419249        -0.721379         3.426039
 H         1.129393        -2.195899         1.385596
 H         0.200152        -0.926290         2.145074
 H         0.290404        -0.178281        -0.555869
 H         3.861594        -1.565935        -0.475893
