19
Iteration:  3953charge 0 multiplicity 1
 C         1.820768         2.010665        -0.532500
 C         1.864799         0.896207         0.367835
 C         2.262555         0.958893         1.861635
 C         2.374723        -0.496588         1.748875
 O         3.171227        -1.208246         2.734428
 C         0.936738        -1.140643         1.482863
 C         0.978833        -0.351711         0.158847
 C         2.608261        -0.364457         0.187301
 O         3.680400        -0.658183        -0.631847
 H         2.577578         2.807977        -0.154404
 H         2.222134         1.630652        -1.513811
 H         0.789383         2.573885        -0.630166
 H         3.229244         1.423463         2.057663
 H         1.460416         1.287811         2.527821
 H         3.624463        -1.944746         2.259057
 H         0.872429        -2.187137         1.360401
 H         0.117341        -0.820080         2.263415
 H         0.436851        -0.371856        -0.747818
 H         3.659097        -1.654853        -0.601810
