19
Iteration:  1266charge 0 multiplicity 1
 C         1.915561         2.008829        -0.685849
 C         1.906801         0.965157         0.400276
 C         2.487251         1.096587         1.804205
 C         2.433966        -0.513702         1.797094
 O         3.293487        -1.326679         2.529261
 C         0.915636        -1.021785         1.733324
 C         0.935312        -0.374746         0.381326
 C         2.411032        -0.413760         0.203500
 O         3.337075        -0.814748        -0.694619
 H         1.282239         1.811099        -1.586323
 H         1.675877         3.013102        -0.218015
 H         2.952771         2.149169        -1.111156
 H         3.585571         1.492848         1.633552
 H         2.161529         1.698139         2.616333
 H         4.207565        -1.037834         2.344599
 H         0.819826        -2.134417         1.735195
 H         0.421132        -0.567137         2.552867
 H         0.203294        -0.361216        -0.338238
 H         3.294943        -1.744390        -0.833506
