19
Iteration:  4919charge 0 multiplicity 1
 C         1.678128         2.132776        -0.479576
 C         1.930887         0.984075         0.409998
 C         2.275892         0.985524         1.871958
 C         2.422135        -0.537995         1.824891
 O         3.105575        -1.474605         2.599383
 C         0.926826        -0.897639         1.561718
 C         1.212500        -0.385132         0.171061
 C         2.666120        -0.294127         0.192105
 O         3.540063        -0.891573        -0.840441
 H         0.654827         2.336320        -0.623828
 H         2.333601         2.921181        -0.174330
 H         2.124955         1.721518        -1.393998
 H         3.080839         1.538735         2.269673
 H         1.375772         1.233612         2.567728
 H         3.714193        -1.140539         3.279670
 H         0.774573        -1.918203         1.805272
 H         0.254987        -0.167478         2.161478
 H         0.560173        -0.263121        -0.625453
 H         4.217357        -1.245715        -0.295502
