19
Iteration:  4000
 C         1.859616         2.122069        -0.475006
 C         1.850963         0.953434         0.366388
 C         2.062244         0.929741         1.893308
 C         2.455658        -0.612196         1.755023
 O         3.202280        -1.110274         2.825899
 C         1.046007        -1.181206         1.355487
 C         1.250447        -0.373836         0.125885
 C         2.742298        -0.306454         0.243779
 O         3.468897        -0.839550        -0.765864
 H         2.834783         2.606956        -0.433935
 H         1.508907         2.099877        -1.492125
 H         1.244025         2.852373         0.117742
 H         2.865974         1.640238         2.055984
 H         1.101021         1.180596         2.498342
 H         2.715649        -1.279467         3.640134
 H         1.032661        -2.252516         1.135514
 H         0.124350        -0.942071         2.008702
 H         0.592198        -0.496661        -0.831701
 H         2.822347        -1.569048        -1.083922
