19
Iteration:  1758
 C         1.847169         2.194604        -0.585524
 C         2.082882         0.995273         0.387327
 C         2.491589         1.031239         1.878510
 C         2.449272        -0.511668         1.806100
 O         3.278421        -1.363439         2.637084
 C         1.058444        -0.969328         1.698317
 C         1.009556        -0.222288         0.377272
 C         2.498905        -0.398819         0.191672
 O         3.078631        -1.075381        -0.939564
 H         2.538581         2.914954        -0.024250
 H         2.182135         2.063826        -1.682300
 H         0.799508         2.600930        -0.574685
 H         3.480919         1.358408         1.960343
 H         1.838500         1.521729         2.648712
 H         4.024670        -0.784867         2.713296
 H         0.940279        -2.059604         1.489012
 H         0.485498        -0.653279         2.539788
 H         0.485682        -0.324089        -0.582048
 H         3.019662        -2.035953        -0.943494
