19
Iteration:  3043charge 0 multiplicity 1
 C         1.814006         2.114192        -0.548857
 C         1.925223         1.001534         0.414025
 C         2.340628         0.973464         1.885757
 C         2.405999        -0.527923         1.801934
 O         3.117694        -1.286155         2.793206
 C         0.987356        -1.072340         1.553553
 C         1.064494        -0.363281         0.172566
 C         2.635426        -0.344480         0.162281
 O         3.489913        -0.889316        -0.801283
 H         2.272651         3.008848        -0.180897
 H         2.225941         1.912184        -1.574903
 H         0.753703         2.192348        -0.884459
 H         3.324618         1.480919         1.967971
 H         1.676499         1.414098         2.703723
 H         4.031093        -0.906527         2.889264
 H         1.063123        -2.118793         1.540441
 H         0.164116        -0.736659         2.296666
 H         0.437574        -0.369521        -0.747288
 H         3.022978        -1.429287        -1.416547
