19
Iteration:  1158
 C         1.821621         2.151929        -0.695053
 C         1.889652         0.981098         0.362121
 C         2.568873         1.070177         1.761350
 C         2.541599        -0.572590         1.796240
 O         3.221098        -1.367072         2.756506
 C         1.024464        -0.904590         1.735089
 C         0.957118        -0.330777         0.338639
 C         2.435629        -0.487331         0.204684
 O         3.307008        -0.917254        -0.814546
 H         1.360133         1.875335        -1.641709
 H         1.050061         2.883137        -0.391058
 H         2.723686         2.673792        -0.909743
 H         3.611878         1.398335         1.603713
 H         2.064526         1.523977         2.620336
 H         4.053419        -0.932265         2.884698
 H         1.060597        -2.036524         1.601197
 H         0.458631        -0.738424         2.704994
 H         0.191329        -0.453187        -0.394348
 H         2.875621        -1.529028        -1.427577
