19
Iteration:  3378
 C         1.840439         2.089081        -0.660499
 C         1.890247         0.986659         0.348400
 C         2.303997         1.004565         1.844033
 C         2.391410        -0.542559         1.726934
 O         3.285974        -1.410121         2.482649
 C         0.874096        -0.905490         1.691251
 C         0.962593        -0.369328         0.218848
 C         2.448237        -0.379546         0.158172
 O         3.663647        -0.883507        -0.361331
 H         2.767920         2.650010        -0.749950
 H         1.558391         1.479346        -1.553825
 H         1.106086         2.919906        -0.564918
 H         3.247474         1.495129         2.134147
 H         1.477425         1.267793         2.567358
 H         4.182928        -1.131075         2.143972
 H         0.597791        -2.045088         1.538091
 H         0.173906        -0.334228         2.252110
 H         0.251484        -0.578562        -0.555336
 H         3.686558        -0.618058        -1.311765
