19
Iteration:  2697charge 0 multiplicity 1
 C         1.834447         2.200258        -0.594219
 C         1.970892         1.048749         0.428289
 C         2.297885         0.954900         1.807003
 C         2.374883        -0.610510         1.804182
 O         3.192075        -1.103078         2.876629
 C         0.978133        -1.219144         1.469613
 C         1.129548        -0.384613         0.186175
 C         2.607309        -0.367427         0.256579
 O         3.452260        -0.873792        -0.778769
 H         2.786816         2.764712        -0.734047
 H         1.249652         1.903959        -1.474682
 H         1.184243         2.920283        -0.102687
 H         3.366239         1.199073         1.998210
 H         1.652180         1.380838         2.609109
 H         3.017348        -2.046309         2.670750
 H         0.963067        -2.319659         1.168538
 H         0.264665        -0.892100         2.117714
 H         0.917302        -0.851085        -0.815132
 H         2.749882        -0.870471        -1.528751
