19
Iteration:  3933
 C         1.842826         2.078268        -0.693631
 C         1.763910         0.946447         0.397931
 C         2.312332         0.984879         1.861872
 C         2.342530        -0.620937         1.770813
 O         3.181108        -1.356101         2.674385
 C         0.946069        -1.017615         1.512214
 C         1.044907        -0.420952         0.142604
 C         2.546275        -0.458675         0.210574
 O         3.665317        -0.564528        -0.483688
 H         2.312708         3.000421        -0.361833
 H         2.150508         1.650799        -1.611874
 H         0.792377         2.403807        -0.735583
 H         3.351916         1.286220         1.814407
 H         1.777618         1.522467         2.754042
 H         4.046263        -1.419912         2.206270
 H         0.850744        -2.059480         1.382740
 H         0.116657        -0.613714         2.238988
 H         0.333006        -0.481321        -0.684270
 H         3.909670        -1.434160        -0.717580
