19
Iteration:   578charge 0 multiplicity 1
 C         1.845487         2.120723        -0.635280
 C         1.921742         0.948190         0.347349
 C         2.159182         0.994547         1.884236
 C         2.404370        -0.522935         1.827515
 O         3.304034        -1.175970         2.638962
 C         1.053703        -1.050686         1.626125
 C         1.075193        -0.437004         0.246393
 C         2.518236        -0.392055         0.200609
 O         3.393679        -0.979177        -0.763035
 H         0.959125         1.956304        -1.244531
 H         1.891883         2.992797        -0.019124
 H         2.716597         2.077070        -1.254120
 H         3.134064         1.481207         2.121911
 H         1.362375         1.327437         2.466232
 H         3.586866        -0.366110         3.142698
 H         1.263998        -2.195717         1.438703
 H         0.305078        -0.727224         2.452875
 H         0.399488        -0.562104        -0.543595
 H         4.248777        -0.424137        -0.789416
