19
Iteration:   365charge 0 multiplicity 1
 C         1.675289         2.025212        -0.698197
 C         1.936565         0.990806         0.365481
 C         2.234180         1.031551         1.891826
 C         2.455752        -0.551373         1.788792
 O         3.372676        -1.165984         2.696296
 C         0.951874        -1.118352         1.561726
 C         1.098049        -0.368506         0.236346
 C         2.570934        -0.361376         0.218733
 O         3.493747        -0.902654        -0.681515
 H         1.304987         2.975484        -0.423570
 H         2.598249         2.206803        -1.220324
 H         1.004714         1.685618        -1.463483
 H         3.006282         1.656249         2.175918
 H         1.331409         1.276113         2.436071
 H         2.862118        -1.865691         3.144045
 H         0.880479        -2.224404         1.544663
 H         0.063179        -0.666449         2.108426
 H         0.447155        -0.304145        -0.616769
 H         4.350287        -0.400496        -0.541645
