19
Iteration:   297
 C         1.726499         2.088772        -0.657819
 C         1.918180         0.888405         0.382284
 C         2.243963         0.955743         1.858128
 C         2.380451        -0.512627         1.820533
 O         3.224585        -1.128167         2.642744
 C         0.992936        -1.051292         1.662281
 C         1.080174        -0.377442         0.216877
 C         2.595999        -0.452556         0.198358
 O         3.523874        -0.950478        -0.684829
 H         0.745996         2.501139        -0.979890
 H         2.219245         2.957731        -0.201697
 H         2.199692         2.062243        -1.569205
 H         3.146560         1.425036         2.041153
 H         1.495202         1.265530         2.581878
 H         4.214161        -1.083835         2.491332
 H         0.909544        -2.092829         1.775827
 H         0.218987        -0.480529         2.436425
 H         0.412851        -0.403672        -0.669220
 H         3.973708        -0.354517        -1.242100
