19
Iteration:  1517charge 0 multiplicity 1
 C         1.910953         2.098473        -0.674697
 C         1.943234         0.948010         0.359988
 C         2.619652         1.014352         1.842146
 C         2.521947        -0.539191         1.750608
 O         3.268136        -1.413868         2.587318
 C         1.007859        -0.911405         1.786251
 C         0.907826        -0.190619         0.477903
 C         2.406509        -0.451484         0.175684
 O         3.164635        -0.880155        -0.884932
 H         0.986516         2.649172        -0.585802
 H         2.768977         2.754074        -0.455062
 H         2.066285         1.532791        -1.578204
 H         3.515644         1.584012         1.705753
 H         1.907977         1.470649         2.562472
 H         4.074517        -0.931297         2.888334
 H         0.787545        -2.019692         1.579943
 H         0.491087        -0.669337         2.833027
 H         0.065952        -0.468385        -0.256986
 H         3.357005        -1.800472        -0.799863
