19
Iteration:  1904
 C         1.976856         2.081539        -0.544786
 C         1.919870         0.972668         0.418796
 C         2.398189         0.987028         1.867929
 C         2.481417        -0.621898         1.809635
 O         3.354083        -1.290519         2.639768
 C         0.931793        -0.920080         1.719315
 C         1.014379        -0.231343         0.337519
 C         2.507945        -0.436616         0.133337
 O         3.189554        -0.939555        -0.947596
 H         2.323423         1.720807        -1.561107
 H         0.936141         2.488439        -0.719953
 H         2.902040         2.744800        -0.208135
 H         3.354349         1.402792         2.088257
 H         1.772733         1.466727         2.646693
 H         3.833287        -0.647215         3.244444
 H         0.599093        -1.899712         1.486482
 H         0.440448        -0.436387         2.593498
 H         0.464753        -0.345865        -0.548373
 H         2.678453        -1.777421        -1.250401
