19
Iteration:  2104charge 0 multiplicity 1
 C         1.897253         2.166442        -0.480622
 C         1.892196         0.929721         0.411211
 C         2.399028         1.026819         1.813556
 C         2.551691        -0.489342         1.760641
 O         3.156724        -1.331480         2.708819
 C         1.006428        -0.948889         1.740003
 C         1.065230        -0.292214         0.324074
 C         2.574583        -0.573661         0.126384
 O         3.299444        -0.931923        -0.993219
 H         2.185690         3.033867         0.115550
 H         2.527275         1.907411        -1.401201
 H         0.856236         2.569543        -0.951683
 H         3.363661         1.578507         1.819498
 H         1.800316         1.523428         2.541898
 H         3.340531        -0.647989         3.347501
 H         1.001752        -2.041509         1.805040
 H         0.309145        -0.565695         2.544057
 H         0.600389        -0.254334        -0.624665
 H         2.849708        -1.709166        -1.242421
