19
Iteration:  1751charge 0 multiplicity 1
 C         1.874057         2.134358        -0.499673
 C         2.076643         0.971591         0.396432
 C         2.447766         1.059430         1.870072
 C         2.511553        -0.538874         1.815924
 O         3.320983        -1.333135         2.668221
 C         0.949033        -0.980126         1.718509
 C         1.007078        -0.202481         0.367962
 C         2.515681        -0.408818         0.118982
 O         3.095628        -1.063326        -1.002878
 H         2.495664         2.954959        -0.168137
 H         2.348607         2.042863        -1.465308
 H         0.884979         2.525214        -0.769722
 H         3.514137         1.506653         2.045808
 H         1.651968         1.641849         2.422854
 H         4.197626        -0.927688         2.751918
 H         0.837226        -2.039398         1.633957
 H         0.377561        -0.643582         2.624287
 H         0.300855        -0.072465        -0.538849
 H         2.908776        -2.058594        -0.893212
