19
Iteration:  4309
 C         1.958348         2.060333        -0.545847
 C         1.817127         0.917156         0.426754
 C         2.232852         0.944417         1.875930
 C         2.302861        -0.576298         1.713716
 O         3.287071        -1.165097         2.591854
 C         1.008478        -1.215336         1.412908
 C         0.993848        -0.443826         0.078633
 C         2.477125        -0.396044         0.198721
 O         3.598791        -0.565358        -0.487601
 H         2.932839         2.131734        -1.105709
 H         1.064906         2.189647        -1.323317
 H         1.998277         3.026257         0.141176
 H         3.246600         1.366840         1.984756
 H         1.566180         1.287727         2.619434
 H         2.835820        -1.606893         3.329310
 H         1.181655        -2.318292         1.362329
 H         0.208987        -1.025197         2.127032
 H         0.093094        -0.363480        -0.655390
 H         3.984894        -1.456622        -0.326920
