19
Iteration:  2226charge 0 multiplicity 1
 C         1.970303         1.983185        -0.576204
 C         1.898480         0.925645         0.486801
 C         2.339513         1.042466         1.890439
 C         2.494102        -0.530629         1.740438
 O         3.341964        -1.310472         2.432347
 C         0.901994        -0.935709         1.608769
 C         0.849899        -0.261197         0.312527
 C         2.387885        -0.455170         0.175278
 O         3.459382        -0.860724        -0.616522
 H         2.764222         1.688542        -1.313292
 H         1.028294         2.178216        -1.129599
 H         2.457220         2.970540        -0.232616
 H         3.406216         1.463120         1.868332
 H         1.662158         1.400133         2.710580
 H         4.049325        -0.734326         2.688278
 H         0.774793        -2.065453         1.488992
 H         0.240063        -0.506789         2.367684
 H         0.053763        -0.069551        -0.429164
 H         3.404640        -1.794825        -0.974917
