19
Iteration:  3881
 C         1.789918         1.999733        -0.662469
 C         1.886266         0.967903         0.426984
 C         2.193211         0.963191         1.960702
 C         2.404949        -0.530488         1.799125
 O         3.232487        -1.363614         2.602496
 C         0.963351        -1.017270         1.480535
 C         1.030714        -0.359299         0.151970
 C         2.612357        -0.337209         0.191071
 O         3.628608        -0.683867        -0.613025
 H         2.670907         2.600318        -0.522517
 H         1.991392         1.508664        -1.643784
 H         0.900513         2.617025        -0.659900
 H         2.977752         1.673059         2.146197
 H         1.339279         1.216197         2.658358
 H         3.223918        -1.135805         3.571799
 H         1.017422        -2.151114         1.483663
 H         0.131973        -0.821234         2.130115
 H         0.409288        -0.306910        -0.797873
 H         3.769988        -1.656865        -0.620891
