19
Iteration:  2671
 C         1.854286         2.133114        -0.476525
 C         1.915000         0.938109         0.465583
 C         2.206074         0.917461         1.882847
 C         2.403196        -0.554020         1.805047
 O         3.230255        -1.047092         2.846326
 C         1.004719        -1.068263         1.451455
 C         1.072086        -0.337833         0.138126
 C         2.539849        -0.423180         0.075142
 O         3.580984        -0.957598        -0.780960
 H         2.755588         2.380777        -0.933367
 H         1.064009         2.085395        -1.190164
 H         1.582364         2.976294         0.161300
 H         3.083198         1.527650         2.118895
 H         1.403827         1.181226         2.613786
 H         3.084154        -2.031256         2.853654
 H         1.217734        -2.102685         1.208324
 H         0.133367        -0.959581         2.151350
 H         0.300071        -0.269015        -0.624586
 H         3.235793        -0.957487        -1.744379
