19
Iteration:  1799
 C         1.791744         2.080320        -0.513170
 C         1.932864         0.953842         0.410415
 C         2.591051         1.088480         1.818751
 C         2.402058        -0.611998         1.802520
 O         3.267737        -1.400708         2.514967
 C         0.961840        -0.838694         1.715198
 C         0.958890        -0.137110         0.330668
 C         2.416215        -0.467471         0.117515
 O         3.406096        -1.022477        -0.771449
 H         2.742093         2.518610        -0.847668
 H         1.176459         2.039903        -1.419090
 H         1.240445         2.839648         0.014899
 H         3.698869         1.239701         1.747967
 H         2.177684         1.697230         2.615728
 H         4.159504        -0.946445         2.488727
 H         0.679585        -1.949574         1.705735
 H         0.311998        -0.347893         2.508115
 H         0.040028        -0.196329        -0.177856
 H         3.106107        -1.925599        -0.967023
