19
Iteration:  1886
 C         1.991160         2.130924        -0.724459
 C         2.053316         1.047867         0.395660
 C         2.423106         0.920782         1.929892
 C         2.422601        -0.579059         1.835675
 O         3.379433        -1.341305         2.622763
 C         0.932814        -0.998788         1.714091
 C         0.890271        -0.226452         0.363266
 C         2.471282        -0.447803         0.194563
 O         3.212785        -0.897008        -0.853008
 H         2.488167         1.724225        -1.580935
 H         0.974531         2.341844        -1.009580
 H         2.544558         2.954233        -0.402750
 H         3.487072         1.418557         1.987412
 H         1.813585         1.314214         2.787046
 H         4.070685        -0.654212         2.848603
 H         0.902763        -2.114519         1.667915
 H         0.118607        -0.657629         2.369425
 H        -0.054647        -0.153414        -0.241410
 H         2.735178        -1.518258        -1.491927
