19
Iteration:  1231charge 0 multiplicity 1
 C         1.895971         2.211082        -0.468194
 C         1.837303         0.916226         0.280507
 C         2.389450         1.062916         1.755993
 C         2.461844        -0.561923         1.704955
 O         3.382407        -1.242673         2.635041
 C         0.942351        -0.946773         1.752115
 C         0.944519        -0.336802         0.322968
 C         2.469853        -0.467601         0.132174
 O         3.361546        -1.069728        -0.741393
 H         1.024000         2.499058        -1.111754
 H         1.900932         3.159483         0.162709
 H         2.840791         2.198643        -1.112730
 H         3.386442         1.545830         1.419765
 H         1.697983         1.555102         2.534846
 H         4.182322        -0.671658         2.538327
 H         0.681901        -2.030343         1.660923
 H         0.348835        -0.478745         2.472773
 H         0.006280        -0.340148        -0.356397
 H         3.501182        -1.959515        -0.522357
