19
Iteration:  2022
 C         1.951072         2.091354        -0.695432
 C         1.888037         0.982010         0.375702
 C         2.417647         1.099494         1.878971
 C         2.490772        -0.554642         1.774915
 O         3.279644        -1.512585         2.462564
 C         0.981612        -0.894751         1.773363
 C         0.907404        -0.276770         0.310424
 C         2.470608        -0.379970         0.279539
 O         3.367063        -0.869897        -0.656115
 H         0.991286         2.532394        -0.889779
 H         2.394028         3.021589        -0.521393
 H         2.189211         1.654525        -1.586938
 H         3.343490         1.617838         2.085599
 H         1.643155         1.398324         2.687026
 H         4.102709        -1.565489         1.973110
 H         0.708491        -1.987325         1.681088
 H         0.501485        -0.334394         2.625679
 H         0.192531        -0.305085        -0.499615
 H         3.071461        -1.701531        -1.069882
