19
Iteration:  2819charge 0 multiplicity 1
 C         1.871844         2.146983        -0.662054
 C         1.930100         1.052559         0.395485
 C         2.214047         1.008928         1.907164
 C         2.384797        -0.612390         1.842798
 O         3.365068        -1.293543         2.620789
 C         0.861158        -1.053667         1.618148
 C         1.095813        -0.310833         0.203927
 C         2.535360        -0.387967         0.156949
 O         3.470575        -0.924172        -0.671449
 H         2.407409         3.086946        -0.286882
 H         2.299492         1.806596        -1.596527
 H         0.879123         2.568296        -0.738236
 H         3.074559         1.553696         2.418298
 H         1.224564         1.357489         2.311579
 H         3.077190        -2.202339         2.486262
 H         0.793543        -2.227071         1.541645
 H         0.098843        -0.681314         2.273194
 H         0.534107        -0.406567        -0.689731
 H         4.300396        -0.481675        -0.701824
