19
Iteration:  2223charge 0 multiplicity 1
 C         1.978077         1.984721        -0.558800
 C         1.872553         0.934420         0.466116
 C         2.365968         1.045503         1.883414
 C         2.451427        -0.543284         1.741586
 O         3.342913        -1.320640         2.410876
 C         0.919815        -0.935399         1.649003
 C         0.864285        -0.277221         0.272776
 C         2.399003        -0.444101         0.179416
 O         3.452373        -0.860637        -0.596575
 H         2.738789         1.721597        -1.234597
 H         1.069257         2.165064        -1.122926
 H         2.423308         2.941463        -0.259233
 H         3.373244         1.553033         1.832404
 H         1.616898         1.454669         2.714696
 H         4.080248        -0.716102         2.684775
 H         0.763039        -2.021980         1.500235
 H         0.251229        -0.482309         2.456382
 H         0.143786        -0.106109        -0.470513
 H         3.370442        -1.772609        -0.978692
