19
Iteration:  3650
 C         1.835494         2.016439        -0.586748
 C         1.958460         0.970056         0.391103
 C         2.221133         1.052324         1.906365
 C         2.400477        -0.519645         1.785379
 O         3.143817        -1.149034         2.820126
 C         1.038756        -1.110021         1.482805
 C         1.188194        -0.339157         0.203456
 C         2.692167        -0.287808         0.226736
 O         3.417027        -0.885588        -0.831747
 H         2.819454         2.639672        -0.618537
 H         1.509922         1.646976        -1.605575
 H         1.027993         2.755144        -0.246041
 H         3.130432         1.480546         2.295663
 H         1.418102         1.305603         2.579319
 H         3.209594        -2.106253         2.584338
 H         0.927981        -2.202795         1.315886
 H         0.261914        -0.963463         2.255016
 H         0.546457        -0.557756        -0.728178
 H         2.937678        -1.797963        -0.798423
