19
Iteration:  4985
 C         2.001396         2.139717        -0.486239
 C         1.771993         0.936393         0.442329
 C         2.238489         0.954031         1.903873
 C         2.406193        -0.502769         1.769148
 O         3.130405        -1.265172         2.724645
 C         0.987764        -1.181645         1.486829
 C         1.021680        -0.360807         0.163360
 C         2.558566        -0.420240         0.185897
 O         3.565409        -0.792233        -0.751205
 H         1.955367         2.990424         0.133962
 H         3.045828         2.076412        -0.796636
 H         1.496101         2.410450        -1.388760
 H         3.049513         1.541633         2.089097
 H         1.427478         1.282766         2.625821
 H         4.070136        -0.978792         2.751780
 H         1.136552        -2.228366         1.256530
 H         0.126183        -0.965363         2.219797
 H         0.332659        -0.292917        -0.638535
 H         3.161265        -0.683063        -1.650968
