19
Iteration:   931charge 0 multiplicity 1
 C         1.960587         1.975271        -0.724563
 C         1.893336         0.932496         0.391465
 C         2.406690         1.009104         1.896324
 C         2.436919        -0.533833         1.808779
 O         3.387946        -1.276385         2.483665
 C         0.917120        -0.878218         1.810876
 C         0.967599        -0.275553         0.364505
 C         2.392230        -0.556211         0.234575
 O         3.342166        -0.824747        -0.797726
 H         1.256865         1.569183        -1.567379
 H         1.488500         2.936919        -0.347737
 H         3.033125         2.090688        -0.953717
 H         3.431045         1.304513         2.133591
 H         1.811755         1.538919         2.587851
 H         3.918993        -0.514680         2.786834
 H         0.707331        -1.914670         1.738413
 H         0.543014        -0.397108         2.720794
 H         0.095164        -0.440374        -0.373205
 H         3.109078        -1.617536        -1.334309
