19
Iteration:   937charge 0 multiplicity 1
 C         1.924732         1.928983        -0.665633
 C         1.971862         0.909726         0.401138
 C         2.388577         0.986985         1.874182
 C         2.443970        -0.539984         1.758158
 O         3.376125        -1.261750         2.513024
 C         0.920262        -0.843510         1.810721
 C         0.957342        -0.252406         0.351995
 C         2.411891        -0.520880         0.223806
 O         3.307296        -0.824989        -0.807285
 H         1.516976         1.523493        -1.557486
 H         1.461738         2.856825        -0.387912
 H         2.902085         2.271808        -1.084819
 H         3.435957         1.382205         2.028724
 H         1.652154         1.492544         2.614997
 H         4.019778        -0.668413         2.888248
 H         0.822420        -1.978525         1.715130
 H         0.482803        -0.448213         2.741425
 H         0.209569        -0.420221        -0.329271
 H         3.106355        -1.634753        -1.223398
