19
Iteration:  2220charge 0 multiplicity 1
 C         1.984752         1.994129        -0.545818
 C         1.846076         0.944730         0.438629
 C         2.387171         1.043272         1.883185
 C         2.397331        -0.551104         1.741896
 O         3.349118        -1.331331         2.396786
 C         0.930471        -0.935310         1.692637
 C         0.896754        -0.287548         0.244671
 C         2.411576        -0.432922         0.188918
 O         3.447166        -0.859703        -0.584796
 H         2.777708         1.691613        -1.272755
 H         1.079038         2.173684        -1.130611
 H         2.345747         2.935467        -0.221100
 H         3.291853         1.610257         1.838726
 H         1.698564         1.467004         2.610746
 H         4.080388        -0.747567         2.669546
 H         0.758820        -1.973536         1.552720
 H         0.293642        -0.512445         2.492180
 H         0.148138        -0.168285        -0.564870
 H         3.304705        -1.710990        -0.941747
