19
Iteration:  3999charge 0 multiplicity 1
 C         1.863625         2.114506        -0.476410
 C         1.852406         0.951255         0.364304
 C         2.065832         0.928717         1.890566
 C         2.456945        -0.616457         1.752893
 O         3.205391        -1.107672         2.824307
 C         1.038048        -1.181737         1.356746
 C         1.249432        -0.372175         0.125874
 C         2.742187        -0.300589         0.249053
 O         3.466806        -0.836232        -0.764302
 H         2.859118         2.646742        -0.458769
 H         1.516112         2.118192        -1.512116
 H         1.184611         2.856127         0.136355
 H         2.849885         1.631522         2.096664
 H         1.111160         1.168724         2.476045
 H         2.708459        -1.320602         3.631375
 H         1.022730        -2.228979         1.172493
 H         0.098523        -0.939587         2.034067
 H         0.620877        -0.513396        -0.834367
 H         2.839447        -1.576737        -1.104644
