19
Iteration:  1997
 C         1.789450         2.050473        -0.602978
 C         2.002756         0.981609         0.388539
 C         2.471658         1.059502         1.841467
 C         2.402704        -0.486221         1.856085
 O         3.246353        -1.484422         2.472014
 C         0.858632        -0.848782         1.774969
 C         1.077671        -0.312138         0.320485
 C         2.552497        -0.378067         0.245037
 O         3.388005        -0.914132        -0.754934
 H         0.836045         2.247420        -1.092568
 H         1.996174         3.036967        -0.237405
 H         2.433942         1.812189        -1.418094
 H         3.572153         1.377842         1.978448
 H         1.890408         1.513408         2.656031
 H         4.042157        -1.432160         1.953477
 H         0.625533        -1.932939         1.676863
 H         0.194262        -0.310544         2.400682
 H         0.288687        -0.114862        -0.388242
 H         2.879966        -1.607211        -1.128585
