19
Iteration:  3634
 C         1.769968         2.097301        -0.570564
 C         1.921561         0.975186         0.419805
 C         2.259970         0.958728         1.962278
 C         2.465652        -0.525344         1.868496
 O         3.096386        -1.150550         2.882912
 C         1.023973        -1.024855         1.489241
 C         1.194417        -0.411644         0.082921
 C         2.644410        -0.376542         0.177647
 O         3.466862        -0.920574        -0.817897
 H         2.706807         2.564413        -0.879001
 H         1.359619         1.630982        -1.450254
 H         1.164528         2.915325        -0.235061
 H         3.220863         1.531336         1.886027
 H         1.383671         1.366815         2.588546
 H         3.644566        -1.855963         2.445339
 H         1.192314        -2.102987         1.524377
 H         0.190187        -0.481010         2.016239
 H         0.727046        -0.392646        -0.846374
 H         2.813950        -1.332360        -1.479836
