19
Iteration:  1029
 C         1.697992         2.197827        -0.575960
 C         1.977210         0.937870         0.345482
 C         2.526406         0.961561         1.798609
 C         2.460630        -0.613171         1.793342
 O         3.319267        -1.215631         2.598410
 C         0.917707        -0.766444         1.791799
 C         1.033772        -0.307627         0.317065
 C         2.561530        -0.504432         0.160314
 O         3.332091        -1.134875        -0.830088
 H         2.433439         2.144049        -1.452231
 H         0.594078         2.378558        -0.670389
 H         2.070225         2.913158         0.155900
 H         3.502163         1.251460         2.014817
 H         1.966858         1.500979         2.633988
 H         3.996653        -0.546751         2.881910
 H         0.592315        -1.776145         1.739450
 H         0.245290        -0.185819         2.409087
 H         0.117307        -0.342960        -0.363073
 H         2.734293        -1.593077        -1.463003
