19
Iteration:    58
 C         1.781087         2.068722        -0.602265
 C         1.855488         0.983269         0.433756
 C         2.385047         1.044553         1.798647
 C         2.447840        -0.536424         1.714380
 O         3.334983        -1.175362         2.655112
 C         0.967732        -1.107814         1.590473
 C         0.986331        -0.374544         0.288882
 C         2.507694        -0.341734         0.174354
 O         3.438603        -0.925801        -0.698678
 H         2.456133         1.888620        -1.470965
 H         0.770016         2.223601        -1.028387
 H         2.150062         2.964857        -0.234020
 H         3.387826         1.336247         1.803883
 H         1.756930         1.536876         2.599588
 H         2.645160        -1.709692         3.147712
 H         1.059948        -2.186090         1.450145
 H         0.278886        -0.673203         2.390320
 H         0.405926        -0.499410        -0.718523
 H         4.309431        -1.075816        -0.269699
