19
Iteration:  2276
 C         1.905741         2.067745        -0.597741
 C         1.905411         0.884465         0.371510
 C         2.469938         1.046505         1.920288
 C         2.508511        -0.471288         1.873963
 O         3.107981        -1.348907         2.771187
 C         0.991909        -0.962387         1.621955
 C         1.060013        -0.426084         0.236267
 C         2.587324        -0.378792         0.184058
 O         3.272221        -0.793496        -0.947120
 H         1.936758         1.867220        -1.680091
 H         1.020407         2.706504        -0.439597
 H         2.757892         2.697207        -0.328300
 H         3.343635         1.626515         1.984625
 H         1.730102         1.294288         2.702834
 H         4.060308        -1.089688         2.922584
 H         0.985139        -2.034033         1.607757
 H         0.105480        -0.627449         2.223273
 H         0.392707        -0.519913        -0.577177
 H         3.202435        -1.747659        -1.171804
