19
Iteration:  4139charge 0 multiplicity 1
 C         1.867531         2.021928        -0.590333
 C         1.874743         0.951989         0.438143
 C         2.191705         0.917018         1.960121
 C         2.364673        -0.598274         1.754384
 O         3.244668        -1.203230         2.613737
 C         0.937995        -1.174586         1.472507
 C         1.060271        -0.331951         0.165767
 C         2.618871        -0.298622         0.191551
 O         3.606861        -0.639756        -0.638976
 H         2.268169         3.019356        -0.196462
 H         2.564115         1.745916        -1.373415
 H         0.929890         2.273341        -1.114134
 H         3.177514         1.350019         2.099494
 H         1.407941         1.283523         2.645405
 H         2.698230        -1.504690         3.374556
 H         1.022139        -2.208456         1.207256
 H         0.044463        -1.133294         2.163036
 H         0.401886        -0.560508        -0.764965
 H         3.652606        -1.595914        -0.589094
