19
Iteration:  2389charge 0 multiplicity 1
 C         1.904595         2.185384        -0.636700
 C         1.887022         1.008146         0.334422
 C         2.281281         1.032125         1.828018
 C         2.395284        -0.610514         1.782379
 O         3.341883        -1.447260         2.429948
 C         0.875939        -0.950376         1.710264
 C         0.930486        -0.327879         0.260287
 C         2.473815        -0.327018         0.218149
 O         3.511669        -0.911957        -0.568443
 H         0.932537         2.547988        -0.954352
 H         2.403269         3.074262        -0.178834
 H         2.539300         1.810827        -1.515090
 H         3.197097         1.580252         2.226776
 H         1.445149         1.347879         2.561472
 H         4.226465        -0.990650         2.437227
 H         0.909472        -2.135121         1.636642
 H         0.187305        -0.675136         2.592406
 H         0.221081        -0.328848        -0.601035
 H         4.067495        -1.592389        -0.203109
