19
Iteration:   295
 C         1.724647         2.071263        -0.648421
 C         1.926245         0.897952         0.388228
 C         2.231875         0.956824         1.875446
 C         2.382282        -0.504636         1.797404
 O         3.219218        -1.123527         2.628475
 C         0.987786        -1.047178         1.660530
 C         1.106774        -0.383570         0.234197
 C         2.583603        -0.444168         0.198586
 O         3.527578        -0.965527        -0.690224
 H         0.754706         2.508973        -1.016421
 H         2.192365         2.970495        -0.201912
 H         2.287988         2.055117        -1.597360
 H         3.203984         1.490246         2.135751
 H         1.445869         1.278804         2.584980
 H         4.194602        -1.032025         2.553435
 H         0.929740        -2.144273         1.717031
 H         0.217452        -0.506886         2.465290
 H         0.351517        -0.381551        -0.642810
 H         3.924439        -0.366550        -1.323171
