19
Iteration:   316charge 0 multiplicity 1
 C         1.736791         2.066978        -0.570798
 C         1.839864         0.918200         0.276816
 C         2.311337         1.042997         1.763374
 C         2.425534        -0.534851         1.783019
 O         3.320120        -1.221937         2.795026
 C         0.896503        -0.976098         1.582152
 C         1.075866        -0.478723         0.206216
 C         2.493112        -0.421274         0.225740
 O         3.537044        -0.885489        -0.675559
 H         0.703093         2.543062        -0.561759
 H         2.384159         2.948635        -0.354883
 H         1.935355         1.846736        -1.680621
 H         3.380494         1.545098         1.800589
 H         1.669884         1.676728         2.442289
 H         4.152485        -1.535981         2.370172
 H         0.832070        -2.067930         1.382067
 H         0.144176        -0.616311         2.406721
 H         0.287655        -0.797534        -0.562934
 H         4.218032        -0.221486        -0.590012
