19
Iteration:   510
 C         1.681315         1.976150        -0.698188
 C         1.922301         0.950480         0.398970
 C         2.315122         1.035149         1.811568
 C         2.435548        -0.539146         1.763269
 O         3.197767        -1.309920         2.690351
 C         0.934899        -1.006971         1.650224
 C         1.016610        -0.378324         0.260310
 C         2.539278        -0.374730         0.187861
 O         3.649334        -0.806959        -0.605857
 H         0.759165         2.498901        -0.631938
 H         2.446413         2.682408        -0.785335
 H         1.610304         1.519565        -1.713598
 H         3.287321         1.513737         1.896979
 H         1.553033         1.347284         2.476963
 H         4.148737        -1.106468         2.488434
 H         1.044144        -2.164642         1.324896
 H         0.095414        -0.809668         2.443670
 H         0.210559        -0.483961        -0.461697
 H         3.924806        -0.066851        -1.112495
