19
Iteration:  2225
 C         1.972548         1.982356        -0.569967
 C         1.890080         0.928104         0.481209
 C         2.348043         1.044110         1.886985
 C         2.481955        -0.535292         1.741132
 O         3.341949        -1.313517         2.424248
 C         0.908574        -0.934676         1.621727
 C         0.852739        -0.267468         0.298428
 C         2.391175        -0.451369         0.176156
 O         3.456935        -0.860190        -0.608536
 H         2.752634         1.705762        -1.276771
 H         1.043022         2.171638        -1.127670
 H         2.455345         2.967279        -0.245097
 H         3.407149         1.497451         1.850748
 H         1.632430         1.422658         2.725132
 H         4.055318        -0.727510         2.685047
 H         0.769321        -2.059742         1.487647
 H         0.242023        -0.492803         2.400601
 H         0.091199        -0.078745        -0.439591
 H         3.396328        -1.802838        -0.985645
