19
Iteration:   324
 C         1.699492         2.048245        -0.583588
 C         1.844970         0.897473         0.375357
 C         2.338837         1.123751         1.740610
 C         2.445078        -0.497017         1.807795
 O         3.302759        -1.218894         2.776044
 C         0.892672        -0.993333         1.576396
 C         1.047534        -0.495372         0.205423
 C         2.552604        -0.448787         0.136145
 O         3.515090        -0.844175        -0.649188
 H         0.804250         2.680454        -0.456482
 H         2.635791         2.627877        -0.368736
 H         1.715780         1.730415        -1.730394
 H         3.422528         1.545281         1.690328
 H         1.658562         1.594710         2.469319
 H         4.032684        -1.822288         2.472868
 H         0.867129        -2.136301         1.424890
 H         0.107580        -0.736274         2.149256
 H         0.279095        -0.661549        -0.611077
 H         4.305453        -0.416686        -0.405772
