19
Iteration:  1820charge 0 multiplicity 1
 C         1.831828         2.107792        -0.545399
 C         2.104568         0.940346         0.319201
 C         2.521068         0.959992         1.738904
 C         2.440155        -0.579203         1.753058
 O         3.274480        -1.399622         2.486865
 C         0.863499        -0.785254         1.836590
 C         0.921841        -0.291435         0.367033
 C         2.403936        -0.490285         0.184069
 O         3.368942        -0.843417        -0.723745
 H         2.686981         2.227340        -1.181610
 H         1.025889         2.005561        -1.245084
 H         1.719289         2.993993         0.031749
 H         3.558664         1.469949         2.014398
 H         1.821643         1.155377         2.569929
 H         4.116445        -1.369392         2.057790
 H         0.677185        -1.839144         2.225304
 H         0.297658        -0.099087         2.547994
 H         0.331050        -0.209861        -0.500564
 H         3.196584        -1.777264        -0.822635
