19
Iteration:  2675charge 0 multiplicity 1
 C         1.839929         2.150767        -0.498981
 C         1.928313         0.921856         0.430056
 C         2.230216         0.906319         1.909205
 C         2.403237        -0.570976         1.802571
 O         3.221737        -1.052808         2.855917
 C         0.986388        -1.085873         1.455721
 C         1.089535        -0.354301         0.124337
 C         2.581930        -0.403318         0.088363
 O         3.521875        -0.932761        -0.766127
 H         2.854805         2.456805        -0.894264
 H         1.024234         2.068506        -1.244577
 H         1.571414         3.011929         0.124543
 H         3.145863         1.504736         2.025463
 H         1.381196         1.208392         2.566692
 H         3.187207        -2.013175         3.027355
 H         1.292188        -2.134250         1.160614
 H         0.182732        -0.951487         2.107424
 H         0.269020        -0.179002        -0.619656
 H         3.258241        -0.957087        -1.664169
