19
Iteration:  3771
 C         1.760687         1.957883        -0.616250
 C         1.962887         1.002277         0.431424
 C         2.296600         1.051886         1.945986
 C         2.355417        -0.489364         1.810596
 O         3.167935        -1.271324         2.745959
 C         0.928552        -1.092686         1.437910
 C         1.055169        -0.328174         0.135875
 C         2.629008        -0.340828         0.207869
 O         3.586564        -0.785901        -0.641502
 H         2.644506         2.629149        -0.677333
 H         1.663708         1.362655        -1.556989
 H         0.941109         2.695424        -0.488516
 H         3.285467         1.326270         2.162192
 H         1.575653         1.190274         2.693830
 H         3.947014        -1.476773         2.219934
 H         1.019904        -2.177290         1.163652
 H        -0.049704        -0.970505         1.903320
 H         0.301391        -0.123244        -0.580506
 H         3.513805        -1.644922        -0.985080
