19
Iteration:   530
 C         1.749830         2.052201        -0.676743
 C         1.805526         0.861233         0.322754
 C         2.382051         0.993957         1.922338
 C         2.379560        -0.500467         1.791877
 O         3.257338        -1.225853         2.583204
 C         0.997960        -1.062561         1.652788
 C         0.990266        -0.426048         0.158551
 C         2.491757        -0.445693         0.201472
 O         3.599159        -0.819024        -0.549996
 H         0.743773         2.306883        -0.807611
 H         2.373084         2.827883        -0.304416
 H         2.103342         1.756726        -1.692964
 H         3.410163         1.208201         1.915954
 H         1.779152         1.521118         2.739746
 H         3.948280        -0.568629         2.642114
 H         0.733542        -2.133836         1.744315
 H         0.344871        -0.348587         2.154413
 H         0.155471        -0.490345        -0.641121
 H         3.912511        -0.028120        -0.998871
