19
Iteration:   528
 C         1.743337         2.051745        -0.695579
 C         1.817201         0.868148         0.319305
 C         2.381383         0.991497         1.928899
 C         2.390583        -0.496132         1.795009
 O         3.243222        -1.230006         2.587878
 C         0.989700        -1.080854         1.646843
 C         0.978131        -0.419397         0.174658
 C         2.492068        -0.453150         0.195358
 O         3.612482        -0.815208        -0.555574
 H         0.663097         2.309966        -0.758983
 H         2.439980         2.879873        -0.311997
 H         2.065885         1.701660        -1.695945
 H         3.447688         1.271904         1.954386
 H         1.764020         1.544609         2.783007
 H         3.999952        -0.594381         2.638318
 H         0.780668        -2.067895         1.779215
 H         0.387852        -0.381566         2.142473
 H         0.120330        -0.435631        -0.671479
 H         3.901489        -0.043620        -0.991263
