19
Iteration:  2961charge 0 multiplicity 1
 C         1.879165         2.065136        -0.654866
 C         1.894691         0.969083         0.396488
 C         2.233449         1.073711         1.946022
 C         2.351132        -0.489681         1.814318
 O         3.297676        -1.387361         2.426751
 C         0.968112        -1.053811         1.585443
 C         0.939675        -0.280026         0.225745
 C         2.488476        -0.384683         0.161893
 O         3.560008        -0.896651        -0.545642
 H         2.896576         2.397438        -0.958148
 H         1.456896         1.784997        -1.592904
 H         1.586528         2.978927        -0.240277
 H         3.263957         1.523581         2.003385
 H         1.465275         1.562709         2.574619
 H         3.494825        -1.171015         3.344990
 H         1.089545        -2.183813         1.237903
 H         0.177728        -1.039164         2.331980
 H         0.202348        -0.479430        -0.629005
 H         4.355136        -0.616525        -0.122144
