19
Iteration:  3457charge 0 multiplicity 1
 C         1.858202         2.131579        -0.400445
 C         1.896170         0.852048         0.317141
 C         2.292072         0.924049         1.777212
 C         2.488645        -0.554586         1.796066
 O         3.090843        -1.104602         2.976584
 C         0.983838        -1.012932         1.654624
 C         1.004117        -0.418123         0.196716
 C         2.655984        -0.433885         0.065379
 O         3.464075        -0.916647        -1.079163
 H         2.877578         2.435662        -0.506217
 H         1.506199         2.103849        -1.479936
 H         1.212940         2.840632         0.154495
 H         3.114644         1.634322         1.862615
 H         1.493357         1.339317         2.443734
 H         3.481452        -0.313037         3.434703
 H         0.974933        -2.192177         1.773853
 H         0.231007        -0.690225         2.374486
 H         0.455293        -0.480724        -0.811708
 H         4.390969        -1.186399        -0.740095
