19
Iteration:  4999charge 0 multiplicity 1
 C         2.063395         2.089362        -0.417620
 C         1.879948         0.906679         0.398864
 C         2.052700         1.034585         1.907546
 C         2.423023        -0.575101         1.801794
 O         3.169649        -1.330259         2.649219
 C         1.001677        -1.028909         1.497717
 C         1.084536        -0.416317         0.142761
 C         2.557758        -0.395261         0.207676
 O         3.499182        -0.707564        -0.736574
 H         2.143157         3.064409         0.113044
 H         2.989572         2.002988        -1.074598
 H         1.183535         2.098841        -1.104400
 H         3.004076         1.657576         2.043246
 H         1.224964         1.273288         2.537578
 H         4.066979        -0.979470         2.669823
 H         1.015731        -2.169217         1.471682
 H         0.216437        -0.780661         2.202243
 H         0.420799        -0.689752        -0.776144
 H         3.047107        -1.235722        -1.391662
