19
Iteration:  3392
 C         1.795024         2.059986        -0.714913
 C         1.889002         0.967404         0.388680
 C         2.250768         1.038947         1.911967
 C         2.441212        -0.527128         1.750375
 O         3.208976        -1.378275         2.543893
 C         0.981301        -0.977705         1.562933
 C         0.973038        -0.272634         0.213008
 C         2.548075        -0.321411         0.227562
 O         3.586194        -0.989730        -0.460507
 H         2.819946         2.413952        -0.872578
 H         1.217140         1.812485        -1.669208
 H         1.149156         2.857426        -0.323376
 H         3.171644         1.588096         1.974014
 H         1.546114         1.408881         2.627579
 H         4.147454        -1.273205         2.411252
 H         0.997955        -2.078845         1.598216
 H         0.339452        -0.767850         2.428507
 H         0.196736        -0.142886        -0.534138
 H         3.921245        -0.534138        -1.286906
