19
Iteration:  1477
 C         1.946604         1.983562        -0.686837
 C         1.872996         0.942142         0.429897
 C         2.632485         0.966221         1.828129
 C         2.478501        -0.620605         1.792606
 O         3.326422        -1.358516         2.484035
 C         0.874580        -0.786133         1.875708
 C         0.847673        -0.347722         0.411543
 C         2.379225        -0.485890         0.237308
 O         3.305422        -0.704282        -0.804777
 H         1.733862         3.043383        -0.503027
 H         2.875848         1.979777        -1.247615
 H         1.312591         1.835634        -1.576126
 H         3.726906         1.410965         1.817616
 H         2.122715         1.440570         2.626459
 H         4.171094        -1.228339         2.052478
 H         0.658076        -1.816781         1.993605
 H         0.229253        -0.193504         2.480676
 H         0.126826        -0.558669        -0.363693
 H         3.311359        -1.709692        -1.050982
