19
Iteration:  3989charge 0 multiplicity 1
 C         1.867288         2.175918        -0.490180
 C         1.941756         0.922940         0.375404
 C         2.088661         0.922738         1.862168
 C         2.390413        -0.592466         1.819804
 O         3.260565        -1.104443         2.799036
 C         0.966858        -1.171725         1.422241
 C         1.166424        -0.386484         0.099004
 C         2.716413        -0.302971         0.254782
 O         3.487665        -0.806642        -0.767111
 H         2.781541         2.751942        -0.528198
 H         1.586512         1.914257        -1.514335
 H         0.990619         2.742705        -0.184923
 H         2.859263         1.421265         2.425316
 H         1.087271         1.077113         2.436096
 H         2.604692        -1.659235         3.283464
 H         1.005422        -2.254627         1.308514
 H         0.138998        -0.876038         2.161388
 H         0.953360        -0.714059        -0.997376
 H         3.153299        -1.611695        -1.262741
