19
Iteration:  4227
 C         1.687237         2.151597        -0.597445
 C         1.944504         0.969954         0.414114
 C         2.259832         1.017820         1.963646
 C         2.338697        -0.555079         1.874262
 O         3.104331        -1.267549         2.918124
 C         0.984501        -1.270955         1.331404
 C         1.135869        -0.361130         0.082563
 C         2.660839        -0.326611         0.163325
 O         3.650716        -0.723101        -0.720008
 H         2.679679         2.586612        -0.857042
 H         1.147286         1.855328        -1.446470
 H         1.087288         2.801223         0.009533
 H         3.286892         1.429087         1.961360
 H         1.599040         1.620046         2.705812
 H         3.869597        -1.641578         2.417634
 H         1.079968        -2.308238         1.075588
 H        -0.057534        -1.084888         1.835965
 H         0.504427        -0.379551        -0.767136
 H         3.361560        -1.510373        -1.119136
