19
Iteration:   921
 C         1.992350         2.016624        -0.767209
 C         1.782791         0.967685         0.412430
 C         2.452165         1.035162         1.864204
 C         2.399512        -0.572647         1.868046
 O         3.425393        -1.281553         2.472961
 C         0.934853        -0.944154         1.808924
 C         0.873358        -0.342984         0.406089
 C         2.426985        -0.503532         0.199351
 O         3.381901        -0.832607        -0.750110
 H         1.287462         1.894921        -1.666193
 H         1.810131         3.064271        -0.382250
 H         3.022003         1.922199        -1.111468
 H         3.545202         1.450087         1.795773
 H         1.915316         1.465472         2.672454
 H         4.109432        -0.715202         2.813504
 H         0.595188        -1.937794         1.887799
 H         0.144304        -0.347353         2.348805
 H         0.048412        -0.281005        -0.412592
 H         3.032445        -1.551520        -1.258272
