19
Iteration:  4616
 C         1.854873         2.082964        -0.539826
 C         1.913633         0.888621         0.377860
 C         2.231748         0.985556         1.896899
 C         2.398917        -0.522428         1.846339
 O         3.201583        -1.384433         2.645372
 C         0.891670        -0.937206         1.594625
 C         1.050408        -0.449240         0.197044
 C         2.575232        -0.433120         0.136854
 O         3.614769        -0.688305        -0.703666
 H         0.977923         2.319648        -1.110850
 H         2.140268         3.029402        -0.039781
 H         2.569717         2.002474        -1.373189
 H         3.206600         1.590470         2.027109
 H         1.346734         1.324587         2.484679
 H         4.112982        -1.067753         2.410594
 H         0.796782        -2.087684         1.671520
 H         0.142587        -0.497669         2.292181
 H         0.141614        -0.471830        -0.500426
 H         3.281882        -1.346450        -1.287447
