19
Iteration:  1906
 C         1.979271         2.077868        -0.516977
 C         1.926701         0.976178         0.413555
 C         2.374253         0.995400         1.860816
 C         2.485536        -0.613370         1.791062
 O         3.344222        -1.286900         2.641581
 C         0.949972        -0.918579         1.706461
 C         1.010743        -0.233988         0.335717
 C         2.538000        -0.450381         0.144084
 O         3.174004        -0.943281        -0.952145
 H         2.269999         1.711582        -1.504896
 H         0.973159         2.469470        -0.651549
 H         2.869926         2.671824        -0.200964
 H         3.415782         1.447760         2.009497
 H         1.831660         1.457540         2.677244
 H         3.782690        -0.648403         3.249480
 H         0.577687        -1.887694         1.555801
 H         0.449201        -0.392742         2.528100
 H         0.389284        -0.362434        -0.547966
 H         2.743226        -1.770007        -1.216159
