19
Iteration:  4310charge 0 multiplicity 1
 C         1.955945         2.063195        -0.538081
 C         1.823221         0.921738         0.424744
 C         2.227742         0.940215         1.879537
 C         2.311339        -0.571872         1.720393
 O         3.285426        -1.168763         2.598567
 C         1.011511        -1.214770         1.415409
 C         0.987650        -0.442311         0.076117
 C         2.475189        -0.397970         0.194006
 O         3.595278        -0.565682        -0.497826
 H         2.938463         2.129322        -1.118978
 H         1.086425         2.179946        -1.325982
 H         2.008455         3.047505         0.092035
 H         3.242652         1.372770         2.009214
 H         1.538510         1.282961         2.584118
 H         2.838767        -1.584464         3.346825
 H         1.214941        -2.349818         1.360651
 H         0.210057        -1.022041         2.077569
 H         0.097070        -0.373312        -0.644038
 H         3.996462        -1.481036        -0.307710
