19
Iteration:   128charge 0 multiplicity 1
 C         1.789902         2.096829        -0.651865
 C         1.941864         1.024255         0.370005
 C         2.237285         1.030716         2.006092
 C         2.477354        -0.479299         1.815538
 O         3.312542        -1.200627         2.659914
 C         0.889931        -1.020065         1.602640
 C         1.070607        -0.373237         0.194290
 C         2.533264        -0.434360         0.217982
 O         3.430807        -1.054128        -0.746441
 H         2.189695         1.812342        -1.631956
 H         0.744718         2.307937        -0.890344
 H         2.377249         3.081849        -0.499916
 H         3.245228         1.427756         2.406910
 H         1.386688         1.232069         2.640619
 H         4.177708        -1.420841         2.215978
 H         0.955061        -2.159098         1.725149
 H         0.156403        -0.423917         2.286792
 H         0.557986        -0.636423        -0.637351
 H         3.802428        -0.274268        -1.128219
