19
Iteration:  2316
 C         1.793971         2.202980        -0.537943
 C         2.033099         0.923417         0.293927
 C         2.489420         0.878469         1.831260
 C         2.432339        -0.644069         1.805933
 O         3.146830        -1.225088         2.871687
 C         0.925977        -0.995881         1.645868
 C         1.017627        -0.351030         0.253319
 C         2.512595        -0.461695         0.071016
 O         3.445669        -0.824113        -0.859793
 H         1.059719         2.146804        -1.417470
 H         1.525029         3.010985         0.181651
 H         2.705220         2.428094        -1.053140
 H         3.456839         1.468669         1.941877
 H         1.794499         1.237062         2.569411
 H         3.973238        -0.751114         2.918356
 H         0.894131        -2.069626         1.509699
 H         0.370548        -0.657018         2.490245
 H         0.302433        -0.343687        -0.554298
 H         2.750345        -1.298383        -1.381359
