19
Iteration:  3076
 C         1.777470         2.127841        -0.580154
 C         1.971078         0.990999         0.318239
 C         2.361216         1.023118         1.833933
 C         2.424393        -0.561823         1.870359
 O         3.030710        -1.346035         2.956382
 C         1.048600        -1.121336         1.570798
 C         1.174302        -0.317670         0.157757
 C         2.639551        -0.312913         0.217288
 O         3.403359        -0.809213        -0.914527
 H         2.257226         3.038919        -0.281727
 H         2.086895         1.785203        -1.590378
 H         0.695742         2.342276        -0.447371
 H         3.370377         1.450452         1.824286
 H         1.597821         1.569048         2.487326
 H         3.956777        -1.488141         2.683354
 H         1.248880        -2.139570         1.547786
 H         0.230846        -0.840351         2.334003
 H         0.682052        -0.595367        -0.800881
 H         2.937298        -1.556509        -1.322998
