19
Iteration:  2769charge 0 multiplicity 1
 C         1.877723         2.124029        -0.587706
 C         1.913461         0.958046         0.401324
 C         2.369708         1.035221         1.882425
 C         2.363395        -0.619331         1.794991
 O         3.345411        -1.246101         2.576838
 C         0.788950        -1.077024         1.516500
 C         0.998757        -0.442241         0.176745
 C         2.501521        -0.350758         0.217566
 O         3.506821        -0.766709        -0.608672
 H         2.301883         3.064605        -0.225640
 H         2.372837         1.790221        -1.533285
 H         0.813663         2.263797        -0.957233
 H         3.429958         1.229447         1.762462
 H         2.027516         1.724568         2.664894
 H         3.062887        -2.185435         2.710832
 H         0.856200        -2.122371         1.598226
 H        -0.017669        -0.528673         2.134507
 H         0.238313        -0.377982        -0.647797
 H         4.288913        -1.166699        -0.066237
