19
Iteration:  4750charge 0 multiplicity 1
 C         1.688284         2.176789        -0.453896
 C         1.961434         0.869356         0.339021
 C         2.408870         1.012119         1.783626
 C         2.367400        -0.580489         1.767084
 O         3.118209        -1.183823         2.806072
 C         0.985954        -1.077196         1.509772
 C         1.033691        -0.423087         0.134226
 C         2.551077        -0.501596         0.105998
 O         3.676984        -0.675899        -0.710630
 H         1.281408         2.717995         0.417197
 H         2.639617         2.589145        -0.786103
 H         0.982536         2.099249        -1.271274
 H         3.502295         1.320636         1.924173
 H         1.731850         1.493740         2.579842
 H         2.676753        -2.051543         2.963760
 H         0.905177        -2.250619         1.467212
 H         0.298243        -0.674151         2.295735
 H         0.362849        -0.585274        -0.638878
 H         3.716208        -1.585926        -0.957167
