19
Iteration:   213charge 0 multiplicity 1
 C         1.806858         2.048518        -0.567055
 C         1.900278         0.812575         0.322009
 C         2.273948         1.009910         1.794943
 C         2.422797        -0.559999         1.824138
 O         3.347339        -1.178734         2.653968
 C         0.901234        -0.931480         1.577420
 C         0.992317        -0.376090         0.235474
 C         2.619001        -0.500090         0.247112
 O         3.486033        -0.792508        -0.761099
 H         0.847603         2.012303        -1.087499
 H         1.742961         2.857397         0.164116
 H         2.730166         2.221091        -1.193065
 H         3.211640         1.616223         1.894428
 H         1.411967         1.333033         2.469269
 H         3.505911        -0.596816         3.386021
 H         0.967732        -2.057580         1.455539
 H         0.110964        -0.636099         2.261467
 H         0.174013        -0.455758        -0.439316
 H         3.744512        -1.777418        -0.658678
