19
Iteration:  2256
 C         1.922587         2.095978        -0.700237
 C         2.035419         0.988759         0.448967
 C         2.351642         0.948086         1.838051
 C         2.403371        -0.665263         1.842582
 O         3.236149        -1.323943         2.701930
 C         0.972033        -1.019878         1.668529
 C         1.009908        -0.269028         0.278615
 C         2.497218        -0.367677         0.201383
 O         3.300030        -0.784924        -0.837404
 H         2.262693         1.553244        -1.528139
 H         0.927731         2.431866        -0.967911
 H         2.500515         3.004523        -0.451706
 H         3.428100         1.241330         2.012371
 H         1.738782         1.553640         2.673294
 H         4.001050        -0.690419         2.595754
 H         0.721317        -2.098854         1.478737
 H         0.367183        -0.748127         2.605649
 H         0.466200        -0.323986        -0.629973
 H         3.465561        -1.696450        -0.799997
