19
Iteration:   393
 C         1.765462         2.063525        -0.603579
 C         1.862190         0.947921         0.321841
 C         2.131587         1.035147         1.914410
 C         2.417415        -0.537457         1.835900
 O         3.359052        -1.148530         2.642817
 C         1.024386        -1.110898         1.534010
 C         1.109661        -0.382367         0.202278
 C         2.635360        -0.386214         0.274948
 O         3.410260        -0.960506        -0.716151
 H         1.636809         3.123876        -0.180495
 H         2.740474         2.033443        -1.191707
 H         0.944003         2.067406        -1.371896
 H         3.089901         1.687662         2.004491
 H         1.221971         1.400797         2.497294
 H         3.270217        -0.864823         3.587006
 H         1.214703        -2.154911         1.359885
 H         0.083886        -0.921435         1.969083
 H         0.681083        -0.732816        -0.712187
 H         4.228252        -0.440712        -0.791015
