19
Iteration:  2126charge 0 multiplicity 1
 C         1.811771         2.124997        -0.534218
 C         2.064227         0.953143         0.343494
 C         2.494765         0.965636         1.858276
 C         2.453324        -0.539841         1.909946
 O         3.199814        -1.338990         2.766085
 C         0.993227        -0.958657         1.614469
 C         1.011968        -0.342198         0.219240
 C         2.564972        -0.379936         0.078544
 O         3.276303        -0.906521        -0.869735
 H         2.396322         2.997928        -0.219844
 H         1.963130         1.884774        -1.637324
 H         0.758209         2.638751        -0.515727
 H         3.517661         1.403654         1.759910
 H         2.039356         1.588520         2.604159
 H         3.722030        -0.731614         3.363173
 H         0.875001        -2.060544         1.593519
 H         0.261355        -0.635085         2.411163
 H         0.262188        -0.479909        -0.503388
 H         2.629312        -1.547308        -1.322459
