19
Iteration:   857
 C         1.727241         2.055614        -0.666619
 C         2.018312         0.986932         0.380833
 C         2.420576         0.980195         1.830146
 C         2.506576        -0.599326         1.820902
 O         3.289280        -1.275211         2.746041
 C         0.954944        -0.912462         1.741863
 C         1.052933        -0.252155         0.272575
 C         2.485028        -0.444556         0.155821
 O         3.308005        -0.932976        -0.881863
 H         0.725717         2.364882        -0.660455
 H         2.257518         2.962023        -0.382767
 H         2.126904         1.761334        -1.610275
 H         3.469123         1.534787         2.041777
 H         1.694426         1.492336         2.490383
 H         4.134745        -1.070915         2.345525
 H         0.637025        -1.951380         1.840236
 H         0.534195        -0.167366         2.507766
 H         0.249948        -0.535457        -0.476580
 H         3.396168        -1.817446        -0.597128
