19
Iteration:  2837charge 0 multiplicity 1
 C         1.857845         2.085022        -0.519033
 C         2.035114         0.911732         0.423874
 C         2.201532         0.964705         1.956251
 C         2.380619        -0.541890         1.839935
 O         3.281026        -1.152293         2.688990
 C         0.910941        -0.981614         1.451027
 C         1.114857        -0.341679         0.134228
 C         2.616610        -0.423940         0.300949
 O         3.363871        -0.935069        -0.790205
 H         2.566810         2.849227        -0.354261
 H         1.925960         1.757423        -1.562171
 H         0.835525         2.484099        -0.447201
 H         3.134606         1.482794         2.114560
 H         1.450339         1.224060         2.691720
 H         3.471422        -2.039999         2.360012
 H         0.803474        -2.036868         1.213792
 H         0.163025        -0.538944         2.140663
 H         0.553250        -0.397048        -0.785936
 H         4.138651        -0.438879        -1.038226
