19
Iteration:  4807
 C         1.931617         2.052425        -0.613791
 C         1.917487         0.955323         0.451465
 C         2.096434         0.996006         1.958349
 C         2.364714        -0.483458         1.907190
 O         3.265655        -1.296307         2.610524
 C         0.982291        -1.051403         1.543649
 C         1.131905        -0.384844         0.192900
 C         2.579192        -0.353286         0.204908
 O         3.451051        -0.794162        -0.790250
 H         1.194802         2.859163        -0.442435
 H         2.900675         2.538416        -0.614143
 H         1.669579         1.755013        -1.616345
 H         2.905707         1.682221         2.128997
 H         1.111630         1.149310         2.583102
 H         3.325633        -2.212391         2.330825
 H         1.150895        -2.171969         1.427149
 H         0.155590        -0.932242         2.331932
 H         0.452173        -0.461794        -0.717141
 H         4.393514        -0.506766        -0.517201
