19
Iteration:  3553charge 0 multiplicity 1
 C         1.768833         2.090116        -0.677693
 C         1.919086         1.021191         0.384569
 C         2.162404         1.116678         1.824565
 C         2.356120        -0.569490         1.793409
 O         3.311942        -1.422908         2.428939
 C         0.920171        -0.946521         1.610468
 C         1.122224        -0.353595         0.241215
 C         2.593121        -0.353537         0.310464
 O         3.491898        -0.983173        -0.467013
 H         2.692691         2.561661        -0.782682
 H         1.806179         1.518686        -1.609436
 H         0.883311         2.692997        -0.776695
 H         3.134774         1.543279         2.068795
 H         1.462924         1.640627         2.485664
 H         4.157306        -0.935568         2.444535
 H         0.799679        -2.060908         1.573573
 H         0.184556        -0.641611         2.287451
 H         0.368805        -0.508734        -0.616437
 H         4.313477        -0.367604        -0.549665
