19
Iteration:  3404charge 0 multiplicity 1
 C         1.757305         2.068913        -0.648515
 C         1.904212         1.016069         0.404910
 C         2.272747         1.103252         1.888325
 C         2.393523        -0.478212         1.827735
 O         3.134847        -1.324993         2.607748
 C         1.061674        -1.108828         1.507993
 C         1.062558        -0.239444         0.252854
 C         2.611709        -0.398884         0.239139
 O         3.508547        -1.048832        -0.581597
 H         2.709153         2.432190        -1.161207
 H         1.216459         1.629136        -1.539758
 H         1.340375         2.982239        -0.212104
 H         3.269639         1.491824         2.058973
 H         1.583262         1.534376         2.574636
 H         4.077673        -1.093479         2.428743
 H         1.147025        -2.116113         1.172377
 H         0.190430        -0.834567         2.148467
 H         0.362127        -0.300238        -0.613639
 H         3.811733        -0.294353        -1.177402
