19
Iteration:  2470charge 0 multiplicity 1
 C         1.849224         2.033580        -0.530659
 C         2.036286         0.928838         0.391064
 C         2.266166         0.987928         1.929027
 C         2.501765        -0.515219         1.889683
 O         3.030594        -1.323798         2.810134
 C         1.080262        -0.995249         1.616397
 C         1.083991        -0.372294         0.142162
 C         2.586653        -0.384503         0.115421
 O         3.396610        -0.765030        -0.934708
 H         1.577646         2.971597         0.026310
 H         2.760700         2.202903        -1.102843
 H         1.054768         1.921789        -1.215969
 H         3.180815         1.695791         1.817121
 H         1.430340         1.357567         2.575164
 H         3.985090        -1.180508         3.026253
 H         1.116920        -2.081603         1.694148
 H         0.327008        -0.613372         2.368085
 H         0.473688        -0.423058        -0.785382
 H         3.173743        -1.610024        -1.292364
