19
Iteration:  4149charge 0 multiplicity 1
 C         1.905762         2.098201        -0.566668
 C         1.904769         0.910081         0.391114
 C         2.147300         0.925655         1.892754
 C         2.373360        -0.597222         1.763894
 O         3.256368        -1.194426         2.656257
 C         0.938681        -1.168545         1.442410
 C         1.079999        -0.400316         0.168281
 C         2.645540        -0.348205         0.328491
 O         3.533799        -0.654885        -0.733238
 H         2.168748         2.955652         0.126858
 H         2.532867         2.088754        -1.417049
 H         0.891288         2.321049        -0.818614
 H         3.073933         1.420880         2.298687
 H         1.270333         1.281004         2.531408
 H         2.748707        -1.179171         3.500222
 H         0.971738        -2.253429         1.168425
 H         0.143554        -0.827373         2.158209
 H         0.658954        -0.595098        -0.925015
 H         3.732060        -1.634014        -0.685381
