19
Iteration:  3877
 C         1.831008         2.030033        -0.665141
 C         1.881169         0.973099         0.418268
 C         2.198583         0.965197         1.968701
 C         2.380472        -0.534017         1.777854
 O         3.278248        -1.365865         2.654427
 C         0.935933        -1.046036         1.482826
 C         1.035771        -0.382832         0.152926
 C         2.589068        -0.288089         0.180847
 O         3.621892        -0.709484        -0.639321
 H         2.712008         2.689949        -0.643948
 H         1.850529         1.673370        -1.673507
 H         0.878137         2.539878        -0.548526
 H         3.021538         1.673200         2.173506
 H         1.323831         1.259699         2.673345
 H         3.066117        -1.084374         3.556674
 H         1.040362        -2.084439         1.310496
 H        -0.004037        -0.940844         2.170570
 H         0.504756        -0.447548        -0.740179
 H         3.762166        -1.660179        -0.563194
