19
Iteration:  1198
 C         1.694944         2.165849        -0.544636
 C         2.119489         0.968245         0.373210
 C         2.465011         1.051710         1.961894
 C         2.479092        -0.509795         1.740756
 O         3.294328        -1.202766         2.596754
 C         0.991113        -0.916918         1.660650
 C         1.088786        -0.258411         0.254903
 C         2.502272        -0.536143         0.181768
 O         3.223279        -1.118086        -0.816833
 H         0.811423         1.774401        -1.077142
 H         1.530975         3.071078         0.100944
 H         2.525110         2.239820        -1.319231
 H         3.470717         1.600533         2.072868
 H         1.711756         1.460360         2.703937
 H         3.855790        -0.523769         3.078927
 H         0.858560        -2.010597         1.488170
 H         0.206135        -0.560061         2.268869
 H         0.378119        -0.390569        -0.676433
 H         3.055448        -2.090954        -0.913466
