19
Iteration:  3362charge 0 multiplicity 1
 C         1.871922         2.054854        -0.653853
 C         1.869222         0.910138         0.364632
 C         2.326972         1.005284         1.834423
 C         2.314602        -0.574670         1.815542
 O         3.283239        -1.326326         2.361999
 C         0.770353        -0.907916         1.644946
 C         0.956780        -0.425980         0.210589
 C         2.514314        -0.501224         0.283680
 O         3.681983        -0.769887        -0.375306
 H         2.771660         2.726768        -0.487844
 H         2.119220         1.884037        -1.686788
 H         0.974025         2.650195        -0.419469
 H         3.391349         1.334463         1.716301
 H         1.855645         1.674688         2.569089
 H         4.134365        -1.172933         1.880917
 H         0.570476        -1.883369         1.950404
 H         0.233212        -0.192527         2.377589
 H         0.229888        -0.347722        -0.627721
 H         3.557415        -0.854417        -1.294984
