19
Iteration:  2517
 C         1.895652         2.163176        -0.513297
 C         1.984563         0.953145         0.381291
 C         2.358072         0.928502         1.793119
 C         2.408858        -0.655217         1.843150
 O         3.161407        -1.215226         2.907213
 C         1.025489        -1.102766         1.531514
 C         0.965106        -0.353876         0.171446
 C         2.516315        -0.454905         0.102217
 O         3.469331        -0.746216        -0.865917
 H         2.154179         2.964478         0.104988
 H         2.526083         2.198241        -1.386200
 H         0.873504         2.390481        -0.793478
 H         3.404353         1.218209         1.983076
 H         1.631700         1.472010         2.440127
 H         3.664162        -0.475403         3.251893
 H         0.927272        -2.100716         1.250665
 H         0.216628        -0.865218         2.149659
 H         0.034642        -0.517957        -0.411089
 H         3.399949        -1.622021        -1.208611
