19
Iteration:  1549
 C         1.803879         2.143025        -0.486424
 C         2.044853         0.952234         0.433874
 C         2.576489         0.975196         1.845066
 C         2.489368        -0.517582         1.822650
 O         3.368442        -1.296883         2.613105
 C         0.925128        -0.870022         1.668336
 C         1.079476        -0.210464         0.346179
 C         2.493546        -0.485446         0.158234
 O         3.081071        -1.098485        -0.907492
 H         0.779538         2.329661        -0.840804
 H         2.368612         3.095950        -0.355291
 H         2.370130         1.897559        -1.404068
 H         3.463287         1.511453         1.941760
 H         1.895295         1.453888         2.653465
 H         4.074894        -0.618392         2.758921
 H         0.656046        -1.941234         1.467371
 H         0.434340        -0.396951         2.515362
 H         0.204079        -0.162328        -0.407808
 H         2.380372        -1.683502        -1.321013
