19
Iteration:   357charge 0 multiplicity 1
 C         1.661488         2.047696        -0.709120
 C         1.929177         0.940599         0.389261
 C         2.240929         1.018114         1.882643
 C         2.432810        -0.574868         1.785920
 O         3.283102        -1.118389         2.647099
 C         0.960907        -1.044132         1.629619
 C         1.106664        -0.394750         0.253612
 C         2.605783        -0.364144         0.183257
 O         3.517970        -0.874479        -0.678363
 H         1.279356         2.995879        -0.324265
 H         2.657356         2.281893        -1.139595
 H         1.087297         1.501330        -1.565540
 H         3.242454         1.487941         2.243410
 H         1.537015         1.336396         2.658709
 H         2.928406        -2.019417         2.856227
 H         0.993084        -2.189167         1.461884
 H         0.162701        -0.827919         2.224532
 H         0.398120        -0.670547        -0.622901
 H         4.420285        -0.528285        -0.519822
