19
Iteration:   923charge 0 multiplicity 1
 C         1.988795         2.017034        -0.775926
 C         1.792878         0.968139         0.406067
 C         2.446132         1.031588         1.872849
 C         2.398763        -0.570650         1.869331
 O         3.416814        -1.281584         2.468466
 C         0.946852        -0.934857         1.807909
 C         0.882977        -0.333718         0.402834
 C         2.427599        -0.526598         0.201639
 O         3.378969        -0.827884        -0.757474
 H         1.286597         1.866839        -1.576494
 H         1.729804         3.004264        -0.386487
 H         3.032246         1.924401        -1.034054
 H         3.603622         1.446924         1.879826
 H         1.864962         1.504207         2.700999
 H         4.090241        -0.629979         2.814121
 H         0.557112        -1.958424         1.867025
 H         0.165737        -0.322194         2.418461
 H         0.081858        -0.282902        -0.408891
 H         3.018495        -1.601398        -1.313744
