19
Iteration:   112
 C         1.815262         2.059420        -0.580668
 C         1.888702         0.889966         0.444080
 C         2.232024         0.989064         1.891710
 C         2.383039        -0.561977         1.807740
 O         3.319661        -1.121946         2.632664
 C         0.961249        -0.893085         1.631048
 C         1.085230        -0.405814         0.202603
 C         2.613733        -0.406778         0.193156
 O         3.427864        -1.019770        -0.716121
 H         2.467792         1.828361        -1.447992
 H         0.764323         2.281484        -0.839356
 H         2.216839         2.872655        -0.075562
 H         3.024920         1.662840         1.957854
 H         1.446741         1.308859         2.631025
 H         3.922568        -1.629424         2.019070
 H         0.720759        -1.911687         1.507648
 H         0.267885        -0.452316         2.318103
 H         0.309438        -0.297028        -0.698114
 H         3.920513        -0.436746        -1.350639
