19
Iteration:  2951
 C         1.878783         2.105849        -0.701316
 C         1.961843         0.984847         0.395368
 C         2.207566         1.080138         1.850212
 C         2.373309        -0.603689         1.786912
 O         3.332762        -1.372956         2.476083
 C         0.897691        -1.082138         1.530570
 C         1.006327        -0.254211         0.324516
 C         2.504905        -0.380531         0.249174
 O         3.544482        -0.894219        -0.581461
 H         2.882037         2.308018        -1.087424
 H         1.113480         1.895284        -1.406397
 H         1.366673         2.876888        -0.212724
 H         3.188147         1.497177         2.232638
 H         1.430679         1.362126         2.604088
 H         3.243160        -1.106288         3.390226
 H         0.799530        -2.214513         1.234743
 H         0.140529        -0.724714         2.225675
 H         0.307189        -0.402064        -0.554360
 H         4.304531        -0.412028        -0.218620
