19
Iteration:  4713
 C         1.703885         2.122110        -0.546726
 C         1.908292         0.992068         0.391482
 C         2.167903         1.049774         2.038049
 C         2.406578        -0.548586         1.902577
 O         3.235759        -1.289059         2.731957
 C         0.971157        -0.997386         1.470122
 C         1.168086        -0.395976         0.089850
 C         2.653773        -0.393978         0.223933
 O         3.604517        -0.902062        -0.782949
 H         0.951974         2.881207        -0.289224
 H         2.629697         2.779617        -0.552113
 H         1.441744         2.030856        -1.637403
 H         3.095070         1.694121         2.159944
 H         1.379971         1.457327         2.629883
 H         3.503331        -2.142812         2.289894
 H         0.678426        -2.048523         1.388663
 H         0.189546        -0.489574         2.042691
 H         0.659103        -0.563811        -0.947417
 H         3.055439        -1.460766        -1.335331
