19
Iteration:  1871charge 0 multiplicity 1
 C         2.010876         2.000408        -0.656805
 C         1.998176         0.969073         0.455520
 C         2.483765         1.053975         1.879511
 C         2.450100        -0.581626         1.751587
 O         3.251909        -1.325075         2.543140
 C         1.010971        -1.014800         1.676989
 C         0.928264        -0.247262         0.390102
 C         2.374291        -0.377770         0.206707
 O         3.240508        -0.853766        -0.751890
 H         2.604515         1.671964        -1.528772
 H         0.980488         2.192774        -1.017801
 H         2.272729         3.068152        -0.380189
 H         3.542197         1.192728         1.936261
 H         1.944642         1.619790         2.627152
 H         4.184415        -1.059781         2.430915
 H         0.875702        -2.017836         1.432418
 H         0.523274        -0.774338         2.616059
 H         0.147627        -0.094755        -0.298239
 H         2.732405        -1.545826        -1.164659
