19
Iteration:   724
 C         1.817601         2.020557        -0.721263
 C         1.798904         0.956881         0.393158
 C         2.344120         1.092186         1.855783
 C         2.427611        -0.507088         1.805223
 O         3.360501        -1.328910         2.536087
 C         1.030915        -1.038265         1.627012
 C         0.928941        -0.286322         0.321575
 C         2.440398        -0.340204         0.214089
 O         3.500081        -0.962364        -0.539963
 H         2.869793         2.291172        -0.815568
 H         1.507903         1.370495        -1.607426
 H         1.261032         2.911107        -0.537381
 H         3.376458         1.599876         1.848037
 H         1.640347         1.446963         2.524756
 H         4.281692        -1.310135         2.244909
 H         0.718606        -2.047216         1.470620
 H         0.253594        -0.592614         2.498303
 H         0.196437        -0.201038        -0.366789
 H         3.434295        -0.571959        -1.379448
