19
Iteration:   778
 C         1.845852         2.087143        -0.555726
 C         1.871270         0.971475         0.360039
 C         2.310378         0.994337         1.782863
 C         2.511563        -0.520172         1.789400
 O         3.346692        -1.200876         2.681615
 C         0.975452        -0.979149         1.661603
 C         0.975604        -0.310419         0.272951
 C         2.489253        -0.413714         0.132097
 O         3.400292        -1.058150        -0.696662
 H         1.993573         3.000849        -0.005918
 H         2.571123         2.001888        -1.349579
 H         0.869684         2.149620        -0.873458
 H         3.465065         1.367953         1.811264
 H         1.713507         1.514205         2.533924
 H         4.243026        -0.910508         2.552093
 H         0.690314        -2.008520         1.649404
 H         0.179622        -0.639345         2.438936
 H         0.311148        -0.331942        -0.523361
 H         3.031692        -0.946229        -1.552161
