19
Iteration:   631charge 0 multiplicity 1
 C         1.743989         2.087989        -0.584956
 C         1.984451         0.983397         0.357028
 C         2.359351         1.052945         1.826869
 C         2.457792        -0.502840         1.884122
 O         3.164047        -1.142158         2.830371
 C         1.031412        -1.140423         1.600308
 C         1.100704        -0.416432         0.208028
 C         2.577760        -0.391271         0.156561
 O         3.317986        -0.967405        -0.893885
 H         1.743255         1.723943        -1.609070
 H         0.800472         2.466840        -0.309803
 H         2.524643         2.897605        -0.540484
 H         3.301030         1.589946         1.999044
 H         1.510878         1.400661         2.554954
 H         4.083475        -0.762919         2.803519
 H         0.994320        -2.294792         1.435784
 H         0.294851        -1.047297         2.405695
 H         0.408496        -0.448159        -0.595117
 H         4.323130        -0.839827        -0.750432
