19
Iteration:  4041
 C         1.786687         2.220768        -0.477163
 C         1.995553         0.924228         0.336364
 C         2.161951         0.958791         1.829686
 C         2.347739        -0.596766         1.794160
 O         3.093033        -1.208962         2.792290
 C         1.027996        -1.241656         1.413054
 C         1.119408        -0.443620         0.140714
 C         2.634978        -0.365185         0.199915
 O         3.603658        -0.735208        -0.670035
 H         2.837025         2.630949        -0.832496
 H         1.313257         2.139914        -1.499722
 H         1.157280         3.097273         0.067283
 H         3.114262         1.369826         2.105939
 H         1.426010         1.354070         2.510378
 H         3.844909        -0.559952         2.889806
 H         1.009954        -2.271582         1.196543
 H         0.156781        -1.075574         2.159567
 H         0.367620        -0.385288        -0.700845
 H         3.508659        -1.655500        -0.934094
