19
Iteration:  4166
 C         1.886754         2.229358        -0.395690
 C         1.956386         0.903366         0.351404
 C         2.019010         0.956388         1.871610
 C         2.342185        -0.570995         1.914283
 O         3.267126        -1.230967         2.776597
 C         0.955254        -1.129001         1.493562
 C         1.208984        -0.461163         0.032568
 C         2.644057        -0.453291         0.134715
 O         3.506160        -0.715333        -0.832877
 H         2.299613         3.080700         0.104292
 H         2.488060         2.103766        -1.368646
 H         0.886526         2.613499        -0.809025
 H         2.877656         1.633123         2.045954
 H         1.135614         1.330755         2.373074
 H         3.300581        -0.825822         3.676343
 H         0.964783        -2.276488         1.399658
 H         0.053757        -0.845277         2.022036
 H         0.589517        -0.677244        -0.764759
 H         3.658857        -1.674758        -0.857396
