19
Iteration:   482
 C         1.651752         2.018218        -0.747010
 C         1.926438         0.943511         0.420081
 C         2.246276         1.109968         1.954766
 C         2.483965        -0.472904         1.817722
 O         3.176796        -1.299339         2.751216
 C         0.961492        -1.051626         1.569346
 C         1.146957        -0.467144         0.151198
 C         2.629233        -0.360488         0.292256
 O         3.517916        -0.875623        -0.721297
 H         1.082735         2.918395        -0.270666
 H         2.649529         2.405413        -1.219812
 H         0.969698         1.684033        -1.541722
 H         3.228537         1.726501         2.017553
 H         1.400852         1.391220         2.691750
 H         4.055613        -1.473205         2.312175
 H         1.114734        -2.076946         1.508948
 H         0.125221        -0.755099         2.126791
 H         0.540246        -0.565571        -0.729496
 H         3.936043        -0.080802        -1.108437
