19
Iteration:   221
 C         1.813151         2.014503        -0.562736
 C         1.909358         0.863671         0.366608
 C         2.271216         1.069477         1.820871
 C         2.404517        -0.522654         1.812969
 O         3.349038        -1.175428         2.654747
 C         0.954124        -1.010700         1.628455
 C         1.002261        -0.429544         0.191405
 C         2.525151        -0.455950         0.169053
 O         3.528182        -0.826237        -0.736722
 H         0.921672         2.207165        -1.172676
 H         1.829413         2.911792         0.074892
 H         2.628882         2.144478        -1.202736
 H         3.206135         1.442528         2.047714
 H         1.501161         1.371547         2.542814
 H         3.472234        -0.601327         3.406444
 H         0.933726        -2.031133         1.471789
 H         0.142193        -0.719877         2.185704
 H         0.170795        -0.195963        -0.574010
 H         3.382041        -1.833281        -0.838580
