19
Iteration:   828charge 0 multiplicity 1
 C         1.697097         2.051705        -0.537803
 C         1.978850         0.974221         0.386407
 C         2.535075         1.079340         1.802688
 C         2.467482        -0.495838         1.833692
 O         3.208661        -1.271236         2.711235
 C         0.987002        -0.936078         1.661642
 C         1.060291        -0.317077         0.272031
 C         2.553603        -0.442829         0.128576
 O         3.364351        -1.016965        -0.859181
 H         0.874333         2.672071        -0.054832
 H         2.617798         2.687214        -0.532476
 H         1.377285         1.700109        -1.610925
 H         3.475012         1.499079         1.759406
 H         1.863415         1.663362         2.479136
 H         3.959993        -0.667329         2.988701
 H         0.872350        -2.077828         1.784193
 H         0.274325        -0.617169         2.438755
 H         0.272707        -0.549198        -0.530583
 H         2.667911        -1.649544        -1.170022
