19
Iteration:   804
 C         1.744987         2.206689        -0.599994
 C         1.925584         1.010882         0.327198
 C         2.501346         0.996062         1.749398
 C         2.504023        -0.502974         1.794737
 O         3.216739        -1.241143         2.730098
 C         1.039819        -0.998833         1.688485
 C         1.029161        -0.384363         0.294506
 C         2.475254        -0.475926         0.133406
 O         3.381476        -1.036630        -0.741167
 H         1.457343         3.004980         0.097939
 H         2.698897         2.530916        -1.078332
 H         0.870910         2.081958        -1.345865
 H         3.529655         1.318466         1.784204
 H         1.938041         1.536950         2.538816
 H         3.867074        -0.623692         3.058406
 H         1.094893        -2.114678         1.590072
 H         0.196775        -0.914000         2.469363
 H         0.117472        -0.349529        -0.400665
 H         2.789770        -1.238416        -1.434675
