19
Iteration:  1066
 C         1.865468         2.042769        -0.672910
 C         1.884998         0.977110         0.378269
 C         2.478260         1.111881         1.869772
 C         2.461216        -0.451085         1.795752
 O         3.356819        -1.356068         2.485747
 C         1.009245        -0.928293         1.703931
 C         0.947976        -0.241641         0.407372
 C         2.422574        -0.456005         0.220539
 O         3.296282        -1.052709        -0.705772
 H         2.497311         1.918704        -1.549153
 H         1.018354         2.432453        -1.237604
 H         2.293101         2.939760        -0.134891
 H         3.510759         1.552500         1.765030
 H         1.971869         1.625171         2.594741
 H         4.021350        -0.754330         2.943737
 H         1.126348        -1.980519         1.365922
 H         0.263108        -0.877331         2.520874
 H         0.138482        -0.251706        -0.271288
 H         2.641513        -1.713604        -1.154718
