19
Iteration:  2672charge 0 multiplicity 1
 C         1.852346         2.138152        -0.485064
 C         1.918262         0.933324         0.461274
 C         2.212130         0.913149         1.887905
 C         2.402511        -0.557450         1.804205
 O         3.228880        -1.047138         2.849269
 C         0.998356        -1.070283         1.453759
 C         1.077407        -0.342270         0.134887
 C         2.548377        -0.418777         0.077073
 O         3.567815        -0.952207        -0.776913
 H         2.751401         2.395233        -0.907354
 H         1.063910         2.085253        -1.187471
 H         1.583085         2.975568         0.147781
 H         3.093184         1.524735         2.091260
 H         1.390424         1.186427         2.608627
 H         3.106863        -2.043276         2.898019
 H         1.250590        -2.103765         1.191499
 H         0.161120        -0.959906         2.125267
 H         0.282913        -0.241116        -0.627823
 H         3.238495        -0.958930        -1.744926
