19
Iteration:  2120charge 0 multiplicity 1
 C         1.821437         2.125345        -0.515941
 C         2.001900         0.965152         0.362726
 C         2.501197         1.019304         1.805995
 C         2.456771        -0.555705         1.870749
 O         3.172463        -1.322134         2.748442
 C         1.027078        -0.942004         1.618079
 C         1.049431        -0.357431         0.260723
 C         2.567246        -0.414055         0.154782
 O         3.270457        -0.922799        -0.918221
 H         2.469985         2.963684        -0.114219
 H         2.165263         2.048337        -1.539914
 H         0.803358         2.435890        -0.559975
 H         3.516865         1.457543         1.869761
 H         1.891616         1.545401         2.626195
 H         3.607733        -0.877394         3.463091
 H         0.910962        -2.036163         1.526505
 H         0.318311        -0.580114         2.358174
 H         0.168355        -0.561734        -0.417864
 H         2.731974        -1.553516        -1.431567
