19
Iteration:  3365charge 0 multiplicity 1
 C         1.869418         2.085070        -0.654380
 C         1.878909         0.926992         0.376176
 C         2.319788         0.996710         1.821595
 C         2.317921        -0.574465         1.811184
 O         3.286738        -1.337476         2.367596
 C         0.800068        -0.906280         1.640851
 C         0.959612        -0.417422         0.227976
 C         2.489400        -0.505182         0.269745
 O         3.684811        -0.781896        -0.368266
 H         2.808337         2.670788        -0.557465
 H         2.020127         1.813643        -1.731381
 H         0.936381         2.659657        -0.489350
 H         3.405031         1.351343         1.795787
 H         1.755401         1.650497         2.582002
 H         4.118800        -1.146087         1.937269
 H         0.473588        -1.934920         2.006884
 H         0.226085        -0.195867         2.298821
 H         0.261208        -0.403421        -0.637219
 H         3.601375        -0.814300        -1.347262
