19
Iteration:  2706
 C         1.837364         2.183421        -0.571644
 C         1.913164         1.007285         0.403705
 C         2.297668         0.972677         1.905251
 C         2.375917        -0.528618         1.837690
 O         3.151470        -1.169520         2.808612
 C         0.975163        -1.118738         1.528014
 C         1.153832        -0.386136         0.190991
 C         2.647047        -0.408737         0.204779
 O         3.461344        -0.863793        -0.800613
 H         2.678193         2.761797        -0.673515
 H         1.597554         1.749355        -1.519853
 H         1.032976         2.849141        -0.299785
 H         3.296608         1.397436         1.857536
 H         1.581113         1.467734         2.616633
 H         3.271332        -2.137059         2.748916
 H         1.259552        -2.184836         1.272852
 H         0.082786        -1.109837         2.148536
 H         0.717006        -0.742802        -0.813250
 H         3.050483        -1.144713        -1.684799
