19
Iteration:    71
 C         1.811187         2.203210        -0.660854
 C         1.848015         0.973010         0.300837
 C         2.405121         0.936104         1.818418
 C         2.364641        -0.523639         1.817137
 O         3.318044        -1.137147         2.626723
 C         1.031254        -1.096546         1.632166
 C         1.009512        -0.432678         0.224856
 C         2.489710        -0.399216         0.181679
 O         3.422822        -0.927506        -0.649388
 H         2.468266         1.986349        -1.522477
 H         0.800581         2.465525        -1.047525
 H         2.076740         3.100228        -0.064488
 H         3.490784         1.192920         1.811625
 H         2.032821         1.546488         2.683270
 H         3.031121        -1.936917         3.062506
 H         1.003006        -2.235462         1.624520
 H         0.144690        -0.950712         2.424283
 H         0.078032        -0.455120        -0.372229
 H         4.277340        -0.583837        -0.260369
