19
Iteration:  3201charge 0 multiplicity 1
 C         1.803319         2.033566        -0.720129
 C         1.957198         0.982708         0.419856
 C         2.296675         0.903932         1.950190
 C         2.331420        -0.568837         1.868131
 O         3.335280        -1.238801         2.652631
 C         0.848238        -0.924265         1.492681
 C         1.032339        -0.331635         0.206847
 C         2.609400        -0.393990         0.286671
 O         3.519768        -0.744811        -0.700125
 H         2.708456         2.038803        -1.417561
 H         0.961584         1.819506        -1.399966
 H         1.600565         2.966761        -0.203760
 H         3.291825         1.226853         2.309883
 H         1.600928         1.383982         2.609703
 H         3.357387        -2.196555         2.395301
 H         0.807852        -2.071143         1.475820
 H        -0.008885        -0.688058         2.007215
 H         0.476955        -0.458387        -0.694035
 H         3.757704        -1.670032        -0.613528
