19
Iteration:  2760
 C         1.844077         2.142365        -0.685615
 C         1.918735         0.963580         0.378693
 C         2.345690         0.913721         1.905791
 C         2.309288        -0.567507         1.832739
 O         3.345277        -1.231809         2.596120
 C         0.819030        -1.041142         1.546727
 C         1.040247        -0.386240         0.196098
 C         2.535256        -0.415323         0.261765
 O         3.527871        -0.750873        -0.646203
 H         2.260594         2.915430        -0.163716
 H         2.358019         2.132436        -1.628354
 H         0.797753         2.451449        -0.783586
 H         3.419289         1.094555         1.967154
 H         1.827890         1.586093         2.637840
 H         3.181260        -2.205148         2.663805
 H         0.578395        -2.158984         1.578621
 H         0.030143        -0.560463         2.220058
 H         0.296485        -0.423987        -0.677901
 H         4.306877        -1.397849        -0.492877
