19
Iteration:    42charge 0 multiplicity 1
 C         1.727165         2.004593        -0.652747
 C         1.899932         0.916960         0.393531
 C         2.289225         1.079198         1.923995
 C         2.439546        -0.481630         1.871987
 O         3.347886        -1.257031         2.622475
 C         1.000963        -0.976605         1.581537
 C         1.075021        -0.282066         0.188680
 C         2.578551        -0.453864         0.203487
 O         3.401956        -0.898160        -0.791290
 H         2.343994         1.688931        -1.489722
 H         0.648293         2.013936        -0.785882
 H         2.201089         2.965304        -0.160370
 H         3.214211         1.797528         1.984096
 H         1.508469         1.399236         2.593640
 H         2.915631        -1.647959         3.419685
 H         1.117631        -2.044713         1.288124
 H         0.262433        -0.612206         2.259381
 H         0.307581        -0.330095        -0.507381
 H         4.134304        -1.407150        -0.280877
