19
Iteration:  2344charge 0 multiplicity 1
 C         1.804770         2.095477        -0.506878
 C         1.910337         0.927351         0.416186
 C         2.457198         1.022525         1.863941
 C         2.423898        -0.548692         1.794613
 O         3.244647        -1.268702         2.643427
 C         0.870913        -1.048185         1.480703
 C         1.083313        -0.272416         0.286125
 C         2.529564        -0.373817         0.205798
 O         3.426719        -0.935265        -0.782248
 H         0.913574         2.189646        -1.087022
 H         1.876495         3.046298         0.045678
 H         2.687651         2.126631        -1.229654
 H         3.442749         1.466207         1.793150
 H         1.805413         1.514545         2.670633
 H         3.951762        -0.703407         3.014302
 H         0.779952        -2.169782         1.289341
 H         0.078371        -0.702305         2.220552
 H         0.356360        -0.264512        -0.571147
 H         3.177747        -1.854517        -0.658935
