19
Iteration:   704
 C         1.782230         2.013682        -0.699409
 C         1.885633         0.946786         0.396638
 C         2.417165         1.038236         1.867498
 C         2.426131        -0.544490         1.725597
 O         3.242718        -1.275522         2.536866
 C         0.942693        -0.950768         1.702846
 C         0.942581        -0.346344         0.299064
 C         2.494455        -0.423973         0.190748
 O         3.520130        -0.900584        -0.555750
 H         2.694755         2.197757        -1.304600
 H         0.954389         1.581357        -1.387129
 H         1.517666         3.035647        -0.228056
 H         3.429614         1.396447         1.795802
 H         1.888425         1.439906         2.697092
 H         4.114884        -0.844288         2.303292
 H         1.172268        -1.978567         1.706996
 H         0.193283        -0.947170         2.530018
 H         0.246998        -0.410874        -0.424173
 H         3.659053        -0.440091        -1.420900
