19
Iteration:   602
 C         1.799573         2.064234        -0.670330
 C         1.861485         0.994399         0.413258
 C         2.253101         1.060557         1.903499
 C         2.482741        -0.596467         1.818446
 O         3.285724        -1.136422         2.829202
 C         1.023253        -1.172281         1.512482
 C         1.123196        -0.330423         0.199405
 C         2.600020        -0.332990         0.221580
 O         3.281779        -0.979269        -0.852535
 H         1.136769         1.675733        -1.504097
 H         1.423192         2.925248        -0.037937
 H         2.778718         2.293559        -1.014252
 H         3.233183         1.628690         2.013955
 H         1.556158         1.309814         2.623934
 H         3.836337        -0.404732         3.136922
 H         1.033892        -2.191759         1.116640
 H         0.319430        -0.941060         2.397582
 H         0.426907        -0.486031        -0.728183
 H         4.218954        -1.189013        -0.657004
