19
Iteration:  1220charge 0 multiplicity 1
 C         1.813783         2.226918        -0.494267
 C         1.945117         0.912766         0.306132
 C         2.346084         0.988619         1.746307
 C         2.448749        -0.608481         1.797650
 O         3.431746        -1.226215         2.637551
 C         0.898024        -0.870144         1.727897
 C         1.004629        -0.306817         0.259074
 C         2.582455        -0.421837         0.169832
 O         3.283418        -1.112040        -0.805215
 H         0.856849         2.146779        -1.034365
 H         1.865746         2.982911         0.334117
 H         2.666603         2.367518        -1.247763
 H         3.390470         1.532921         1.866436
 H         1.664669         1.534517         2.494555
 H         4.108201        -0.569803         2.722059
 H         0.645304        -1.953450         1.626490
 H         0.223568        -0.422479         2.397421
 H         0.114533        -0.249987        -0.480345
 H         3.329288        -2.003929        -0.401870
