19
Iteration:  4977charge 0 multiplicity 1
 C         2.008486         2.153463        -0.494596
 C         1.790653         0.992551         0.389638
 C         2.268971         0.944729         1.925577
 C         2.377050        -0.578560         1.774200
 O         3.122698        -1.252803         2.777351
 C         0.984662        -1.218930         1.479977
 C         1.022317        -0.348626         0.187344
 C         2.514813        -0.362476         0.122535
 O         3.576681        -0.821967        -0.730746
 H         1.727086         3.092510         0.056304
 H         3.053806         2.393282        -0.830285
 H         1.368096         2.221759        -1.440339
 H         3.378128         1.327397         1.963004
 H         1.638065         1.255683         2.749655
 H         4.000625        -0.796081         2.677463
 H         1.029219        -2.321340         1.235087
 H         0.251572        -1.115171         2.271508
 H         0.229148        -0.429480        -0.657223
 H         3.296680        -0.407918        -1.624936
