19
Iteration:  2623charge 0 multiplicity 1
 C         1.816250         2.191170        -0.566479
 C         1.913703         0.929744         0.387181
 C         2.296599         1.030888         1.891630
 C         2.378753        -0.553086         1.783883
 O         3.342864        -1.266514         2.620213
 C         0.919484        -1.086422         1.459260
 C         0.958374        -0.419185         0.087447
 C         2.519431        -0.384105         0.258452
 O         3.551091        -0.817822        -0.450265
 H         2.814095         2.262624        -1.193997
 H         1.000721         2.024167        -1.346946
 H         1.619865         3.178878        -0.096674
 H         3.314925         1.467334         2.019841
 H         1.638442         1.602765         2.530285
 H         3.608700        -2.031049         2.110256
 H         0.743636        -2.183913         1.388953
 H         0.142698        -0.526404         2.181369
 H         0.560700        -0.709444        -0.897292
 H         3.398570        -1.224064        -1.260774
