19
Iteration:  2026charge 0 multiplicity 1
 C         1.946877         2.067684        -0.651434
 C         1.892264         1.004400         0.384873
 C         2.424146         1.101280         1.863061
 C         2.495707        -0.533583         1.746351
 O         3.286225        -1.495080         2.479582
 C         0.975602        -0.932774         1.768653
 C         0.901396        -0.288506         0.295095
 C         2.449920        -0.384292         0.227421
 O         3.370497        -0.859981        -0.641399
 H         0.956863         2.552998        -0.864676
 H         2.642231         3.005224        -0.529575
 H         2.245953         1.472330        -1.637930
 H         3.329049         1.643261         2.119032
 H         1.722248         1.329782         2.653631
 H         4.153819        -1.536343         2.009290
 H         0.673756        -1.951458         1.677665
 H         0.496606        -0.403530         2.644268
 H         0.041765        -0.111984        -0.446312
 H         2.969697        -1.717235        -0.888014
