19
Iteration:  1729
 C         2.003832         2.087516        -0.517806
 C         1.967860         0.922446         0.413002
 C         2.445988         0.898852         1.872754
 C         2.478484        -0.577850         1.817582
 O         3.368381        -1.226912         2.723956
 C         1.008904        -0.828944         1.711092
 C         0.954089        -0.255255         0.369396
 C         2.411116        -0.517049         0.117348
 O         3.140514        -0.949358        -1.007502
 H         2.340897         2.972159         0.005364
 H         2.664168         2.116887        -1.376091
 H         1.001859         2.321109        -0.950023
 H         3.448508         1.476817         1.920915
 H         1.772813         1.237827         2.716746
 H         4.204575        -0.922734         2.291839
 H         0.705833        -1.855117         1.635160
 H         0.358495        -0.287386         2.473092
 H         0.083708        -0.275868        -0.388039
 H         2.800783        -1.710293        -1.438976
