19
Iteration:  4477
 C         1.864469         2.103294        -0.625211
 C         1.921964         1.075847         0.436526
 C         2.135252         0.976781         1.943148
 C         2.404081        -0.552857         1.751350
 O         3.315770        -1.320470         2.526671
 C         0.963927        -1.196134         1.409435
 C         1.002926        -0.283820         0.167169
 C         2.500412        -0.272989         0.236561
 O         3.566003        -0.842460        -0.375331
 H         1.689490         3.232950        -0.288073
 H         2.844113         1.916481        -1.195727
 H         0.972168         1.795678        -1.218944
 H         3.063764         1.486540         2.230945
 H         1.264858         1.267282         2.463388
 H         4.215386        -1.252623         2.151549
 H         1.201099        -2.326442         1.202815
 H         0.241206        -1.121646         2.183770
 H         0.346096        -0.401668        -0.751490
 H         3.311503        -1.169682        -1.257616
