19
Iteration:  3088
 C         1.792396         2.090533        -0.533140
 C         2.052367         0.924881         0.414665
 C         2.285320         0.969675         1.849254
 C         2.458737        -0.544550         1.860820
 O         3.032841        -1.259280         2.879039
 C         1.027361        -1.045070         1.548294
 C         1.094919        -0.361524         0.245770
 C         2.653652        -0.376374         0.050731
 O         3.464836        -0.792332        -0.913134
 H         2.460355         2.939990        -0.418142
 H         1.843489         1.824491        -1.609788
 H         0.731770         2.414913        -0.492710
 H         3.230911         1.485614         2.074433
 H         1.552727         1.389588         2.586644
 H         4.014467        -1.333161         2.832837
 H         0.961090        -2.078456         1.367797
 H         0.187151        -0.794952         2.272185
 H         0.284331        -0.195294        -0.529359
 H         3.167592        -1.698397        -1.018962
