19
Iteration:  4380
 C         1.716534         2.173292        -0.488011
 C         1.949774         0.894757         0.394907
 C         2.210920         0.953780         1.913989
 C         2.354346        -0.596540         1.818632
 O         3.081638        -1.262960         2.826558
 C         1.005662        -1.176204         1.393288
 C         1.111224        -0.394867         0.090455
 C         2.664420        -0.372934         0.137799
 O         3.657733        -0.685910        -0.761135
 H         2.718105         2.653190        -0.498944
 H         1.399975         1.902857        -1.447667
 H         1.065111         2.849598         0.033501
 H         3.200895         1.335992         2.131692
 H         1.397428         1.381435         2.575576
 H         3.746699        -0.627752         3.140769
 H         1.001950        -2.282442         1.302052
 H         0.157862        -0.911159         2.077087
 H         0.427877        -0.223942        -0.756045
 H         3.674402        -1.653658        -0.983493
