19
Iteration:  2094
 C         1.917920         2.148634        -0.479811
 C         1.923715         0.941362         0.370497
 C         2.390634         0.986581         1.864235
 C         2.499474        -0.557936         1.808772
 O         3.232895        -1.288595         2.699634
 C         0.999399        -0.913951         1.737171
 C         0.977311        -0.320270         0.242050
 C         2.538847        -0.468217         0.107935
 O         3.290588        -0.940932        -0.973094
 H         2.243547         3.064688         0.089977
 H         2.843491         2.172438        -1.162656
 H         0.978787         2.327155        -1.170633
 H         3.308761         1.627411         1.752963
 H         1.791082         1.350067         2.645442
 H         3.552191        -0.855478         3.473633
 H         0.885550        -2.014045         1.749876
 H         0.471089        -0.461355         2.571223
 H         0.179333        -0.470146        -0.436236
 H         3.169994        -1.852560        -1.204604
