19
Iteration:  3763charge 0 multiplicity 1
 C         1.781901         1.984660        -0.698263
 C         1.926791         0.993425         0.416979
 C         2.275486         0.991641         2.032152
 C         2.365283        -0.505920         1.788538
 O         3.151306        -1.307654         2.681359
 C         0.954202        -1.038990         1.420405
 C         0.973100        -0.273719         0.221697
 C         2.623613        -0.361313         0.236533
 O         3.655870        -0.769341        -0.639491
 H         2.622743         2.710946        -0.797675
 H         1.852462         1.361214        -1.678811
 H         0.759988         2.492643        -0.648128
 H         3.292166         1.463628         2.043453
 H         1.627807         1.247829         2.872348
 H         4.019234        -1.328143         2.260996
 H         0.950920        -2.176176         1.264699
 H         0.129028        -0.914372         2.113445
 H         0.323600        -0.393462        -0.632066
 H         3.476711        -1.682311        -0.720417
