19
Iteration:  4004charge 0 multiplicity 1
 C         1.839995         2.160900        -0.464129
 C         1.854642         0.950095         0.386681
 C         2.040222         0.940316         1.900859
 C         2.436052        -0.583021         1.786230
 O         3.198181        -1.125363         2.826072
 C         1.078366        -1.185706         1.354867
 C         1.230327        -0.384427         0.104651
 C         2.734012        -0.326735         0.219065
 O         3.481219        -0.861517        -0.778886
 H         2.869863         2.473009        -0.377446
 H         1.454221         1.992224        -1.476934
 H         1.387224         2.941922         0.049381
 H         2.945708         1.636763         1.966369
 H         1.191927         1.201888         2.535894
 H         2.681383        -1.087456         3.670799
 H         1.099458        -2.299031         1.006555
 H         0.253778        -0.964416         1.920025
 H         0.594088        -0.436013        -0.726562
 H         2.872631        -1.505510        -1.027732
