19
Iteration:  4917
 C         1.683325         2.147643        -0.494431
 C         1.926623         0.979145         0.412210
 C         2.277457         0.998809         1.875314
 C         2.423140        -0.545054         1.812779
 O         3.104726        -1.483009         2.596283
 C         0.929611        -0.894610         1.578439
 C         1.226041        -0.398860         0.170878
 C         2.670250        -0.293098         0.172611
 O         3.529956        -0.886271        -0.822640
 H         0.611490         2.292074        -0.593913
 H         2.295645         2.970790        -0.216578
 H         2.161028         1.823895        -1.428031
 H         3.003611         1.566445         2.316072
 H         1.413781         1.196179         2.644704
 H         3.745158        -1.149196         3.287013
 H         0.757160        -1.951440         1.814099
 H         0.255719        -0.151349         2.147708
 H         0.524019        -0.260580        -0.696380
 H         4.212055        -1.348660        -0.247137
