19
Iteration:  1986
 C         1.802248         2.067196        -0.580894
 C         2.000894         0.975126         0.486279
 C         2.552232         1.077200         1.892337
 C         2.437665        -0.598036         1.780751
 O         3.217702        -1.379830         2.527072
 C         0.911743        -0.855392         1.656770
 C         0.962341        -0.291547         0.291378
 C         2.503179        -0.407824         0.193161
 O         3.374932        -0.939068        -0.752213
 H         0.784704         1.811879        -0.825661
 H         1.932896         3.042496        -0.150695
 H         2.442188         2.060940        -1.418974
 H         3.646661         1.478531         1.890221
 H         1.878826         1.662372         2.526881
 H         4.118942        -1.454037         2.180107
 H         0.714933        -1.923827         1.916152
 H         0.339222        -0.306015         2.362882
 H         0.311601        -0.103913        -0.556790
 H         3.073710        -1.755228        -1.203514
