19
Iteration:  1551charge 0 multiplicity 1
 C         1.810681         2.129110        -0.467548
 C         2.040613         0.951777         0.426604
 C         2.567451         0.997434         1.845414
 C         2.505424        -0.516396         1.811615
 O         3.367304        -1.286791         2.614438
 C         0.915432        -0.866900         1.652157
 C         1.061018        -0.200802         0.351824
 C         2.505403        -0.496638         0.165161
 O         3.080690        -1.114421        -0.913161
 H         0.827556         2.319491        -0.822618
 H         2.313893         3.070365        -0.274548
 H         2.308869         1.950801        -1.400328
 H         3.509822         1.513119         1.934282
 H         1.938923         1.366703         2.656666
 H         4.128103        -0.642130         2.758553
 H         0.638235        -1.941564         1.433221
 H         0.377884        -0.356512         2.565773
 H         0.296182        -0.219924        -0.422030
 H         2.391282        -1.608317        -1.320229
