19
Iteration:  2365charge 0 multiplicity 1
 C         1.903794         2.180867        -0.585534
 C         1.915559         0.996728         0.367425
 C         2.236602         1.052771         1.911413
 C         2.431881        -0.509467         1.806197
 O         3.241480        -1.401578         2.466138
 C         1.044715        -0.984339         1.631812
 C         1.012827        -0.306871         0.256633
 C         2.493503        -0.395486         0.176801
 O         3.428558        -0.965179        -0.672003
 H         0.891771         2.170042        -0.965522
 H         2.009388         3.162673        -0.092102
 H         2.587044         2.086732        -1.504260
 H         3.156978         1.469658         2.142802
 H         1.514761         1.453914         2.642045
 H         4.004811        -1.004452         2.953158
 H         1.004813        -2.103829         1.663934
 H         0.343793        -0.568901         2.417637
 H         0.328783        -0.383856        -0.646503
 H         3.738903        -1.813212        -0.349140
