19
Iteration:   362
 C         1.659189         2.033289        -0.704200
 C         1.941171         0.966589         0.370268
 C         2.239677         1.028331         1.883949
 C         2.456810        -0.573926         1.783223
 O         3.340200        -1.146841         2.678248
 C         0.956770        -1.103638         1.587008
 C         1.103256        -0.372519         0.245064
 C         2.574858        -0.356387         0.205722
 O         3.503463        -0.892035        -0.678492
 H         1.306235         3.055593        -0.396113
 H         2.639665         2.220496        -1.199986
 H         1.077469         1.609722        -1.487681
 H         3.096591         1.627465         2.243818
 H         1.365845         1.307507         2.558351
 H         2.864287        -1.905186         3.030667
 H         0.928304        -2.164495         1.538976
 H        -0.020803        -0.683989         2.143884
 H         0.459004        -0.439484        -0.579995
 H         4.385220        -0.448469        -0.545487
