19
Iteration:   345charge 0 multiplicity 1
 C         1.723627         2.001797        -0.657942
 C         1.843059         0.948858         0.355019
 C         2.305267         0.980861         1.885149
 C         2.352997        -0.465317         1.797498
 O         3.224056        -1.125175         2.666968
 C         1.014174        -1.029441         1.634789
 C         1.074963        -0.436702         0.209489
 C         2.586914        -0.390292         0.243519
 O         3.559659        -0.865415        -0.718523
 H         1.019120         2.715381        -0.270902
 H         2.613089         2.528340        -1.009651
 H         1.116317         1.675459        -1.564573
 H         3.361835         1.304839         1.830485
 H         1.704992         1.477752         2.627991
 H         3.286021        -2.047461         2.391619
 H         1.036938        -2.166012         1.518306
 H         0.438451        -0.726765         2.435729
 H         0.393895        -0.651592        -0.654469
 H         4.448949        -0.554543        -0.333375
