19
Iteration:  2031charge 0 multiplicity 1
 C         1.943225         2.048765        -0.640798
 C         1.914334         1.022820         0.422547
 C         2.420277         1.071089         1.850940
 C         2.485461        -0.524633         1.737038
 O         3.295105        -1.461055         2.485652
 C         0.968414        -0.936512         1.748844
 C         0.906527        -0.280961         0.299015
 C         2.410451        -0.374241         0.167489
 O         3.375247        -0.861586        -0.640998
 H         0.972456         2.511370        -0.810481
 H         2.802130         2.676340        -0.491964
 H         2.243502         1.529023        -1.500997
 H         3.391813         1.640897         2.021204
 H         1.704480         1.364931         2.664876
 H         4.172330        -1.492001         2.100618
 H         0.723870        -2.046158         1.723781
 H         0.390845        -0.536758         2.565110
 H         0.057760        -0.040720        -0.269417
 H         3.000012        -1.744568        -0.784845
