19
Iteration:  1277
 C         1.881067         1.962071        -0.759996
 C         1.866963         0.978657         0.449160
 C         2.470880         1.118541         1.827544
 C         2.461096        -0.592059         1.857337
 O         3.363267        -1.402925         2.567886
 C         0.881129        -0.963949         1.752160
 C         0.935708        -0.254253         0.361650
 C         2.444930        -0.399032         0.254443
 O         3.378708        -0.789081        -0.787637
 H         1.284305         1.482602        -1.576229
 H         1.370897         2.950320        -0.528724
 H         2.958207         2.051316        -1.024440
 H         3.623868         1.336322         1.834555
 H         1.863715         1.674041         2.483549
 H         4.317169        -1.100916         2.421627
 H         0.570158        -2.030454         1.728069
 H         0.150440        -0.483216         2.350734
 H         0.259862        -0.272547        -0.405559
 H         3.197667        -1.717322        -0.916844
