19
Iteration:  3396
 C         1.781971         2.061017        -0.724906
 C         1.886945         0.944083         0.405084
 C         2.245979         1.062043         1.907554
 C         2.431844        -0.504631         1.776478
 O         3.172909        -1.360984         2.559133
 C         1.042857        -1.034994         1.528434
 C         1.003532        -0.235305         0.230221
 C         2.558588        -0.340524         0.260298
 O         3.566334        -1.016404        -0.506486
 H         2.819729         2.456723        -0.848677
 H         1.117530         1.819189        -1.545639
 H         1.199642         2.927172        -0.334497
 H         3.257338         1.548963         1.962570
 H         1.530122         1.474153         2.645681
 H         4.140814        -1.211057         2.401864
 H         1.040094        -2.098490         1.499037
 H         0.273853        -0.741057         2.357113
 H         0.239103        -0.069284        -0.562079
 H         3.902973        -0.485557        -1.253025
