19
Iteration:  1221charge 0 multiplicity 1
 C         1.822708         2.231832        -0.493052
 C         1.934728         0.908318         0.298617
 C         2.343013         0.999589         1.751958
 C         2.448689        -0.613366         1.784569
 O         3.430875        -1.229701         2.640867
 C         0.900260        -0.872932         1.737909
 C         0.999657        -0.310430         0.257945
 C         2.581294        -0.419286         0.168432
 O         3.288332        -1.111127        -0.800331
 H         0.858511         2.156140        -1.026016
 H         1.859915         2.988847         0.341040
 H         2.680054         2.330340        -1.231109
 H         3.409468         1.549130         1.804563
 H         1.689005         1.515230         2.465629
 H         4.113231        -0.557605         2.696526
 H         0.634236        -1.969496         1.612298
 H         0.198980        -0.427125         2.397399
 H         0.118767        -0.236939        -0.427512
 H         3.340056        -1.974874        -0.411807
