19
Iteration:  3899charge 0 multiplicity 1
 C         1.840440         1.936549        -0.632389
 C         1.848689         0.915523         0.432205
 C         2.188597         1.045203         1.904003
 C         2.325293        -0.526157         1.750499
 O         3.178665        -1.442351         2.480969
 C         0.934450        -0.985310         1.575322
 C         1.101994        -0.379554         0.186223
 C         2.591429        -0.404506         0.269660
 O         3.718546        -0.582828        -0.559595
 H         2.470593         2.842632        -0.643644
 H         1.996062         1.541862        -1.616657
 H         0.743296         2.139338        -0.706784
 H         3.201353         1.434350         2.074944
 H         1.458826         1.562444         2.629582
 H         3.570075        -0.822995         3.145446
 H         0.745795        -1.992460         1.421875
 H         0.160476        -0.502049         2.326063
 H         0.396105        -0.490933        -0.559996
 H         3.710891        -1.512249        -0.884473
