19
Iteration:  4289charge 0 multiplicity 1
 C         1.861927         2.081286        -0.527338
 C         1.744399         0.896874         0.360858
 C         2.212599         0.946552         1.847729
 C         2.309254        -0.563915         1.790959
 O         3.333865        -1.225760         2.492233
 C         0.791843        -1.154915         1.515310
 C         1.000162        -0.415616         0.148453
 C         2.556554        -0.375430         0.261367
 O         3.789434        -0.554927        -0.457685
 H         2.823659         2.007351        -1.117106
 H         1.110258         2.126096        -1.379404
 H         1.990729         3.095928        -0.113627
 H         3.282876         1.281424         1.771751
 H         1.714320         1.558217         2.566395
 H         3.056997        -2.111479         2.819379
 H         0.754843        -2.312508         1.264988
 H        -0.053754        -0.872765         2.055558
 H         0.544191        -0.755678        -0.841281
 H         3.860704        -1.470273        -0.585900
