19
Iteration:   940charge 0 multiplicity 1
 C         1.920274         1.910394        -0.638428
 C         2.007167         0.904052         0.407661
 C         2.393251         0.986960         1.860876
 C         2.447480        -0.552193         1.752818
 O         3.367862        -1.255924         2.530720
 C         0.938172        -0.843021         1.806180
 C         0.939651        -0.245486         0.363419
 C         2.437993        -0.490553         0.202959
 O         3.287815        -0.822402        -0.807716
 H         1.549518         1.475562        -1.640395
 H         1.368361         2.856127        -0.385359
 H         2.852565         2.332141        -1.090450
 H         3.312889         1.428197         1.908802
 H         1.648463         1.392983         2.570135
 H         4.096850        -0.755257         2.947054
 H         0.839011        -1.932603         1.738853
 H         0.361135        -0.472248         2.651267
 H         0.172307        -0.369025        -0.429463
 H         3.070410        -1.727435        -1.152171
