19
Iteration:  3085charge 0 multiplicity 1
 C         1.796763         2.095211        -0.537573
 C         2.042132         0.933838         0.398709
 C         2.285589         0.970572         1.828656
 C         2.457186        -0.541926         1.864217
 O         3.030004        -1.280991         2.898414
 C         1.033043        -1.056616         1.556300
 C         1.110996        -0.346627         0.229184
 C         2.658627        -0.357008         0.067293
 O         3.452395        -0.790561        -0.912205
 H         2.374812         3.005063        -0.459421
 H         1.920135         1.842601        -1.622108
 H         0.721904         2.360516        -0.441898
 H         3.243071         1.500535         1.997646
 H         1.600421         1.473919         2.604275
 H         3.994331        -1.404063         2.810163
 H         0.992507        -2.148551         1.489429
 H         0.161878        -0.901153         2.300098
 H         0.404236        -0.273397        -0.568056
 H         3.029752        -1.659778        -1.014698
