19
Iteration:  3375
 C         1.854516         2.104700        -0.661942
 C         1.894188         0.961817         0.361159
 C         2.310709         1.002476         1.822225
 C         2.366420        -0.542298         1.740598
 O         3.294089        -1.400942         2.455512
 C         0.873966        -0.916353         1.689552
 C         0.975343        -0.376420         0.232428
 C         2.416770        -0.412959         0.182571
 O         3.680691        -0.857395        -0.356879
 H         2.804654         2.690117        -0.636927
 H         1.558179         1.514225        -1.515299
 H         1.042083         2.873699        -0.672797
 H         3.313280         1.440866         2.121181
 H         1.499936         1.310549         2.550851
 H         4.125320        -1.098236         2.081047
 H         0.495961        -1.958749         1.641998
 H         0.106488        -0.223428         2.176636
 H         0.272663        -0.610002        -0.600980
 H         3.659707        -0.650280        -1.355845
