19
Iteration:  2731
 C         1.835472         2.018320        -0.521579
 C         1.955857         0.964596         0.445907
 C         2.214423         0.983967         1.879171
 C         2.445088        -0.511990         1.734552
 O         3.224468        -1.245547         2.766350
 C         0.986300        -0.998780         1.524916
 C         1.006720        -0.344244         0.185871
 C         2.594062        -0.370200         0.121962
 O         3.551642        -0.819989        -0.744874
 H         2.473684         2.943062        -0.263883
 H         2.148933         1.732408        -1.545996
 H         0.818664         2.402705        -0.438655
 H         3.159850         1.554069         2.032259
 H         1.346458         1.354404         2.448690
 H         3.275853        -2.192714         2.610517
 H         0.697160        -2.081487         1.576393
 H         0.319074        -0.561613         2.206353
 H         0.225482        -0.248892        -0.576090
 H         3.443594        -1.728695        -1.085129
