19
Iteration:  3179
 C         1.873707         2.001612        -0.726515
 C         1.888767         1.036503         0.403947
 C         2.161710         1.062005         1.943621
 C         2.426266        -0.596482         1.754788
 O         3.374841        -1.320347         2.466151
 C         0.921194        -1.044523         1.602239
 C         0.988049        -0.288349         0.218446
 C         2.517689        -0.364205         0.232899
 O         3.580170        -0.786489        -0.488830
 H         2.867077         1.920531        -1.270214
 H         1.093338         1.906906        -1.490045
 H         1.741091         3.014899        -0.314599
 H         3.019786         1.681036         2.275658
 H         1.372478         1.424570         2.561012
 H         3.097101        -2.229933         2.585504
 H         0.613163        -2.147608         1.541333
 H         0.287903        -0.663804         2.328142
 H         0.462451        -0.067992        -0.658185
 H         3.619207        -1.783068        -0.591836
