19
Iteration:  1733
 C         2.011043         2.116021        -0.506766
 C         1.976431         0.922134         0.437928
 C         2.438403         0.939045         1.844816
 C         2.480426        -0.580655         1.826881
 O         3.371930        -1.239462         2.723335
 C         1.002491        -0.830985         1.709425
 C         0.972213        -0.248477         0.369559
 C         2.422613        -0.498723         0.106869
 O         3.137467        -0.971393        -1.019563
 H         2.293300         2.997512         0.068268
 H         2.584555         1.923858        -1.436945
 H         0.960408         2.167423        -0.815997
 H         3.321439         1.557920         1.930225
 H         1.769967         1.118456         2.636399
 H         4.196206        -0.931555         2.340637
 H         0.680745        -1.891857         1.524984
 H         0.257239        -0.303105         2.372463
 H         0.106024        -0.216818        -0.202311
 H         2.806420        -1.855751        -1.390103
