19
Iteration:  3621
 C         1.750142         2.173218        -0.575509
 C         1.906482         0.950300         0.371818
 C         2.311782         1.008658         1.822929
 C         2.389768        -0.541589         1.842472
 O         3.151419        -1.183923         2.933846
 C         0.952410        -1.000112         1.481565
 C         1.130127        -0.391214         0.152136
 C         2.660240        -0.488260         0.193497
 O         3.569662        -0.913235        -0.808271
 H         2.657034         2.550851        -0.875270
 H         1.201223         1.941504        -1.488681
 H         1.118331         2.876591        -0.092545
 H         3.237959         1.441731         2.207653
 H         1.620130         1.331356         2.645661
 H         3.860554        -1.724204         2.595337
 H         0.737420        -2.111793         1.358010
 H         0.170855        -0.690912         2.148369
 H         0.356088        -0.621222        -0.589476
 H         3.071585        -0.953268        -1.621179
