19
Iteration:  3121
 C         1.906174         2.105996        -0.525925
 C         1.921464         0.884037         0.361772
 C         2.275137         0.898678         1.838393
 C         2.386179        -0.611995         1.825008
 O         3.290311        -1.225833         2.670786
 C         0.847426        -1.007585         1.558820
 C         1.037752        -0.375575         0.192198
 C         2.545027        -0.389821         0.196920
 O         3.499818        -0.750418        -0.750038
 H         2.881833         2.554277        -0.702727
 H         1.449934         1.727116        -1.456323
 H         1.273013         2.904888        -0.079031
 H         3.313718         1.253021         1.724450
 H         1.618139         1.341648         2.639984
 H         3.626145        -0.604448         3.362914
 H         0.644090        -2.015747         1.328695
 H         0.124201        -0.482239         2.243565
 H         0.371855        -0.430576        -0.729455
 H         3.798479        -1.656711        -0.678922
