19
Iteration:  2332charge 0 multiplicity 1
 C         1.808248         2.166701        -0.529678
 C         1.983271         1.000092         0.424621
 C         2.453725         0.924270         1.837519
 C         2.406008        -0.590755         1.826031
 O         3.241160        -1.226266         2.762223
 C         0.932330        -1.044165         1.549703
 C         1.007649        -0.284579         0.169965
 C         2.536378        -0.476251         0.152879
 O         3.387539        -0.884618        -0.774132
 H         0.881729         1.935491        -1.014079
 H         1.660077         3.081519         0.073904
 H         2.627191         2.313324        -1.309821
 H         3.507908         1.049405         1.878234
 H         2.038933         1.558634         2.670228
 H         3.939099        -0.595815         2.916695
 H         0.818238        -2.141842         1.381504
 H         0.089768        -0.679508         2.221043
 H         0.354577        -0.310240        -0.741841
 H         3.262414        -1.765527        -1.299310
