19
Iteration:  4089charge 0 multiplicity 1
 C         1.783089         2.015596        -0.674096
 C         1.865235         0.938855         0.452884
 C         2.205606         0.972756         1.883179
 C         2.332082        -0.570431         1.799095
 O         3.177288        -1.362030         2.538211
 C         0.908324        -1.002842         1.592873
 C         1.118159        -0.466212         0.097909
 C         2.599356        -0.376514         0.268640
 O         3.748195        -0.522441        -0.488808
 H         2.536494         2.803405        -0.583462
 H         1.894757         1.580504        -1.699235
 H         0.747306         2.442568        -0.619558
 H         3.234189         1.358295         2.062960
 H         1.419725         1.489725         2.522318
 H         3.326371        -2.074715         1.902265
 H         0.658987        -2.111870         1.765442
 H         0.140989        -0.446369         2.155456
 H         0.467283        -0.513468        -0.739989
 H         3.805471        -1.482750        -0.837072
