19
Iteration:  4943
 C         1.804581         2.135946        -0.526835
 C         1.973268         0.938503         0.373336
 C         2.359357         1.012041         1.925524
 C         2.364866        -0.614802         1.796944
 O         3.130545        -1.344655         2.706049
 C         0.915046        -1.059502         1.472333
 C         1.105471        -0.294546         0.153242
 C         2.576321        -0.431378         0.183562
 O         3.479419        -0.844582        -0.770097
 H         0.853693         2.457437        -0.125444
 H         2.605590         2.890868        -0.393395
 H         1.623889         1.813211        -1.565607
 H         3.398842         1.423946         2.160522
 H         1.781584         1.331024         2.812393
 H         3.740202        -0.744335         3.216412
 H         0.960324        -2.140929         1.287089
 H         0.122070        -0.769153         2.193568
 H         0.458162        -0.266989        -0.691662
 H         4.274961        -0.198061        -0.658916
