19
Iteration:  4987
 C         2.005122         2.141431        -0.480823
 C         1.783060         0.922107         0.451784
 C         2.210322         0.962878         1.895650
 C         2.413774        -0.514360         1.774012
 O         3.132573        -1.265977         2.707028
 C         0.987568        -1.152898         1.488608
 C         1.026318        -0.370730         0.163881
 C         2.566046        -0.427460         0.197890
 O         3.556791        -0.781671        -0.749410
 H         2.002995         3.005844         0.174304
 H         3.067702         1.975306        -0.769003
 H         1.429557         2.387231        -1.396049
 H         3.047903         1.640421         2.127210
 H         1.424938         1.288016         2.585154
 H         4.099141        -1.023983         2.783354
 H         1.176868        -2.234093         1.268106
 H         0.142909        -0.941380         2.174677
 H         0.304804        -0.300001        -0.716275
 H         3.133609        -0.754815        -1.685710
