19
Iteration:  3143
 C         1.978243         2.150250        -0.613706
 C         1.803896         0.908434         0.392873
 C         2.302813         1.103702         1.837466
 C         2.367670        -0.530956         1.787757
 O         3.345151        -1.290008         2.483365
 C         0.894588        -1.106665         1.600761
 C         0.963777        -0.442592         0.154338
 C         2.427255        -0.451619         0.248696
 O         3.555238        -0.748862        -0.546600
 H         3.037664         2.305322        -0.842476
 H         1.363666         2.131818        -1.527225
 H         1.728960         3.055495        -0.021525
 H         3.367105         1.412283         1.814742
 H         1.601604         1.551072         2.602884
 H         3.153995        -1.273373         3.437360
 H         1.058289        -2.147122         1.601743
 H         0.123596        -0.674578         2.290004
 H         0.424546        -0.553918        -0.825377
 H         3.647637        -1.732997        -0.666500
