19
Iteration:  2545charge 0 multiplicity 1
 C         1.919941         2.073559        -0.512966
 C         1.830971         0.949444         0.409670
 C         2.250888         0.997864         1.882114
 C         2.389945        -0.538448         1.781674
 O         3.154418        -1.308332         2.611828
 C         1.002522        -0.999995         1.627944
 C         1.062633        -0.393061         0.159683
 C         2.588994        -0.384280         0.215108
 O         3.515843        -0.779658        -0.784137
 H         2.551169         2.942140        -0.089637
 H         2.270403         1.836749        -1.547235
 H         0.888800         2.501786        -0.547736
 H         3.311007         1.299106         1.881815
 H         1.635610         1.471727         2.653766
 H         3.847897        -0.783355         3.018392
 H         0.829878        -2.124131         1.515312
 H         0.163543        -0.642210         2.343562
 H         0.453245        -0.775336        -0.661892
 H         3.542384        -1.760836        -0.818832
