19
Iteration:  1555charge 0 multiplicity 1
 C         1.834179         2.103712        -0.443076
 C         2.030737         0.960729         0.410607
 C         2.547269         1.034808         1.844417
 C         2.537628        -0.534797         1.786448
 O         3.367099        -1.260901         2.617883
 C         0.903797        -0.857490         1.648956
 C         1.021760        -0.180073         0.358065
 C         2.522719        -0.505021         0.180683
 O         3.090397        -1.141087        -0.920383
 H         0.775496         2.318925        -0.742569
 H         2.212615         3.057361        -0.009852
 H         2.251751         1.993373        -1.488614
 H         3.633701         1.473867         1.903685
 H         1.943061         1.277926         2.710260
 H         4.177169        -0.786326         2.762480
 H         0.650075        -1.887915         1.466232
 H         0.293647        -0.393645         2.480366
 H         0.422997        -0.314165        -0.523724
 H         2.313917        -1.564409        -1.399944
