19
Iteration:  4336charge 0 multiplicity 1
 C         1.932567         2.107283        -0.604807
 C         1.832614         0.965825         0.405874
 C         2.019942         0.980419         1.950633
 C         2.328185        -0.625431         1.791428
 O         3.249959        -1.284484         2.713432
 C         0.977977        -1.223341         1.481107
 C         1.135930        -0.350568         0.168335
 C         2.675492        -0.319988         0.257054
 O         3.570557        -0.670147        -0.831235
 H         2.887692         2.352705        -1.099410
 H         1.219435         2.201239        -1.343504
 H         1.797785         2.944149         0.018751
 H         2.898931         1.572634         2.204021
 H         1.091307         1.185718         2.603773
 H         2.983207        -1.130445         3.632206
 H         1.037017        -2.309350         1.188716
 H         0.202806        -0.951188         2.261071
 H         0.596181        -0.514990        -0.696985
 H         4.100757        -1.465449        -0.532612
