19
Iteration:  1770charge 0 multiplicity 1
 C         1.856740         2.254283        -0.578335
 C         1.968238         1.032584         0.348096
 C         2.574620         0.964232         1.847122
 C         2.529391        -0.555706         1.801564
 O         3.224411        -1.343055         2.577249
 C         1.042779        -0.945834         1.680997
 C         1.048939        -0.224714         0.320415
 C         2.497986        -0.443908         0.209644
 O         3.094695        -1.028383        -0.809347
 H         2.522580         3.199256        -0.532715
 H         1.901098         1.910928        -1.678094
 H         0.792108         2.578502        -0.381551
 H         3.591419         1.286175         1.859073
 H         2.025018         1.412179         2.737866
 H         4.071721        -1.003380         2.947166
 H         1.139983        -2.032775         1.503374
 H         0.292570        -0.792190         2.416407
 H         0.205971        -0.563758        -0.367087
 H         2.891545        -2.008757        -0.597645
