19
Iteration:  3151charge 0 multiplicity 1
 C         2.009747         2.123492        -0.594729
 C         1.805955         0.937055         0.342496
 C         2.237486         1.061359         1.881132
 C         2.387179        -0.462116         1.799386
 O         3.304276        -1.281970         2.404814
 C         0.949660        -1.076068         1.632919
 C         0.922442        -0.437916         0.199075
 C         2.438658        -0.419970         0.234321
 O         3.607751        -0.786106        -0.512263
 H         2.960049         2.206339        -1.083398
 H         1.340728         1.922396        -1.473657
 H         1.750563         3.036237        -0.014952
 H         3.172165         1.614845         1.697078
 H         1.755070         1.645278         2.757998
 H         3.040743        -1.621659         3.288090
 H         0.986284        -2.137070         1.480819
 H         0.092291        -1.001205         2.445912
 H         0.356944        -0.558185        -0.770951
 H         3.713939        -1.704726        -0.791202
