19
Iteration:  4081
 C         1.753398         2.056547        -0.633721
 C         1.857602         0.864224         0.369076
 C         2.212353         1.004562         1.996710
 C         2.348465        -0.540320         1.802227
 O         3.184793        -1.349996         2.595738
 C         0.858245        -0.977312         1.518746
 C         1.082841        -0.510272         0.071139
 C         2.617587        -0.382835         0.239502
 O         3.774144        -0.554461        -0.552034
 H         2.618405         2.610244        -0.492984
 H         1.780105         1.579164        -1.590080
 H         0.888162         2.562308        -0.501026
 H         3.256530         1.484826         2.203524
 H         1.462896         1.542027         2.656491
 H         3.608108        -1.986264         2.001859
 H         0.731760        -2.103847         1.790058
 H         0.165998        -0.363161         2.007006
 H         0.265404        -0.472922        -0.593342
 H         3.892691        -1.530153        -0.785005
