19
Iteration:  2233
 C         1.980050         1.998337        -0.654119
 C         1.934244         0.934120         0.462660
 C         2.333688         0.977663         1.908075
 C         2.491223        -0.506804         1.731821
 O         3.350923        -1.296895         2.519623
 C         0.862753        -0.976748         1.557571
 C         0.857761        -0.177605         0.371696
 C         2.398319        -0.479271         0.176964
 O         3.471645        -0.840767        -0.697704
 H         2.559993         1.626097        -1.448574
 H         1.003123         2.242328        -1.056822
 H         2.294485         2.874737        -0.127193
 H         3.360743         1.320514         2.114672
 H         1.705198         1.388882         2.829553
 H         4.147833        -0.791535         2.779748
 H         0.832429        -2.055402         1.531601
 H         0.087967        -0.635297         2.341584
 H        -0.028134        -0.126190        -0.186693
 H         3.351188        -1.859934        -0.836785
