19
Iteration:  2244
 C         1.949114         2.018146        -0.697555
 C         1.938740         0.972503         0.375820
 C         2.408981         0.923417         1.944825
 C         2.367244        -0.620396         1.803988
 O         3.334556        -1.290939         2.626666
 C         0.890228        -1.024362         1.667371
 C         0.903062        -0.136306         0.326871
 C         2.480391        -0.421000         0.174512
 O         3.419341        -0.814653        -0.787731
 H         2.500880         1.777283        -1.567732
 H         0.925323         2.259169        -0.963591
 H         2.452305         2.935436        -0.386343
 H         3.370835         1.410026         2.114715
 H         1.564224         1.295276         2.648120
 H         4.113428        -0.748789         2.702180
 H         0.824159        -2.039705         1.281279
 H         0.152204        -0.818615         2.501633
 H         0.115520        -0.089784        -0.382272
 H         3.436015        -1.817728        -0.767490
