19
Iteration:  3954charge 0 multiplicity 1
 C         1.827033         2.019919        -0.537264
 C         1.864502         0.893302         0.369990
 C         2.262445         0.966844         1.864439
 C         2.370274        -0.498061         1.753208
 O         3.174776        -1.203517         2.738921
 C         0.936640        -1.146010         1.479677
 C         0.982897        -0.360900         0.163644
 C         2.617314        -0.364275         0.178867
 O         3.675723        -0.662035        -0.636572
 H         2.552464         2.808180        -0.151157
 H         2.191135         1.637804        -1.504741
 H         0.813115         2.564927        -0.602373
 H         3.216761         1.416747         2.088357
 H         1.413233         1.277641         2.537271
 H         3.587296        -1.948627         2.251817
 H         0.875782        -2.180734         1.355834
 H         0.108070        -0.814768         2.260772
 H         0.415177        -0.326641        -0.760002
 H         3.661885        -1.684899        -0.624443
