19
Iteration:  3490charge 0 multiplicity 1
 C         1.887107         2.156532        -0.551314
 C         1.928542         0.892436         0.312379
 C         2.398248         0.950641         1.791675
 C         2.402542        -0.523322         1.872566
 O         3.180979        -1.168166         2.886317
 C         0.938928        -1.080652         1.582115
 C         1.056892        -0.476420         0.153862
 C         2.533797        -0.441106         0.212688
 O         3.346633        -0.790360        -0.895643
 H         2.697067         2.800441        -0.274099
 H         2.038386         1.741541        -1.581891
 H         0.980833         2.756264        -0.591416
 H         3.428020         1.354053         1.749146
 H         1.710015         1.495999         2.531901
 H         3.681004        -0.464731         3.308772
 H         1.234695        -2.197700         1.552148
 H         0.053389        -0.956676         2.216033
 H         0.531885        -0.673069        -0.852968
 H         4.209444        -1.240878        -0.642007
