19
Iteration:  4617
 C         1.864442         2.085636        -0.534845
 C         1.913077         0.892243         0.381574
 C         2.225726         0.981669         1.892741
 C         2.404433        -0.518533         1.850097
 O         3.202006        -1.380556         2.636723
 C         0.890080        -0.930295         1.602229
 C         1.051601        -0.452984         0.192161
 C         2.575712        -0.443460         0.135263
 O         3.611159        -0.688133        -0.700390
 H         0.962630         2.312731        -1.116386
 H         2.138612         3.023899        -0.009897
 H         2.561788         1.994556        -1.372010
 H         3.201426         1.617052         2.031799
 H         1.318676         1.305053         2.473352
 H         4.106933        -1.074503         2.378085
 H         0.793066        -2.098566         1.694783
 H         0.136416        -0.493572         2.284612
 H         0.163120        -0.506472        -0.530075
 H         3.282666        -1.338858        -1.286886
