19
Iteration:  1702
 C         2.052426         2.071544        -0.586641
 C         1.888308         0.988063         0.406114
 C         2.610819         0.998915         1.689487
 C         2.450936        -0.564442         1.818276
 O         3.274470        -1.344362         2.634148
 C         0.946888        -0.982433         1.832934
 C         0.927690        -0.370888         0.433848
 C         2.394881        -0.435685         0.179335
 O         3.179226        -0.793995        -0.876552
 H         2.138228         3.148348        -0.222562
 H         2.976565         2.063374        -1.273888
 H         1.181068         2.111302        -1.278925
 H         3.583197         1.329474         1.432191
 H         2.208659         1.536773         2.596880
 H         4.150651        -0.896962         2.452425
 H         0.757227        -2.088049         1.746102
 H         0.262659        -0.559005         2.540496
 H         0.176768        -0.366079        -0.276553
 H         2.802862        -1.513962        -1.359901
