19
Iteration:   835
 C         1.696248         2.044683        -0.565802
 C         1.959514         0.918600         0.374048
 C         2.487311         1.040576         1.805847
 C         2.532071        -0.495173         1.828899
 O         3.220863        -1.276954         2.718525
 C         0.978839        -0.874620         1.676364
 C         1.066827        -0.311869         0.256902
 C         2.545986        -0.456690         0.198795
 O         3.344465        -0.995119        -0.871648
 H         0.842691         2.537040        -0.157008
 H         2.425663         2.856886        -0.556686
 H         1.565779         1.777419        -1.598304
 H         3.589019         1.483502         1.982211
 H         1.877178         1.491497         2.606647
 H         4.029664        -0.695946         2.857271
 H         1.021526        -1.934023         1.489674
 H         0.153084        -0.398040         2.350116
 H         0.262422        -0.340353        -0.532915
 H         2.760278        -1.801978        -1.138963
