19
Iteration:  4406
 C         1.725016         2.215878        -0.470639
 C         1.837888         0.898871         0.361978
 C         2.359735         0.961859         1.818887
 C         2.389948        -0.594739         1.688143
 O         3.058247        -1.271856         2.786297
 C         0.997644        -1.139172         1.478256
 C         0.975367        -0.414585         0.104133
 C         2.581524        -0.392756         0.140264
 O         3.754844        -0.685330        -0.549915
 H         2.323301         2.987418        -0.069303
 H         1.961157         2.012104        -1.571506
 H         0.665595         2.549170        -0.319579
 H         3.431536         1.288572         1.731212
 H         1.705764         1.380228         2.701926
 H         4.027640        -1.310939         2.731000
 H         1.030307        -2.204896         1.325404
 H         0.100300        -0.893280         2.236380
 H         0.441666        -0.688916        -0.884630
 H         3.669759        -1.207662        -1.351351
