19
Iteration:  2852
 C         1.855690         2.081266        -0.419348
 C         1.903497         0.947728         0.455238
 C         2.311825         0.926944         1.890539
 C         2.349846        -0.584472         1.794866
 O         3.178301        -1.080867         2.831133
 C         0.933992        -1.072171         1.479780
 C         1.138086        -0.303766         0.144823
 C         2.662726        -0.328664         0.097942
 O         3.392512        -0.986396        -0.866600
 H         2.812384         2.687996        -0.431583
 H         1.664720         1.738501        -1.420207
 H         1.008828         2.673909        -0.171782
 H         3.358654         1.300723         2.111931
 H         1.592735         1.494031         2.538528
 H         3.677993        -1.839663         2.491904
 H         0.783153        -2.219573         1.434650
 H         0.115299        -0.744374         2.091113
 H         0.460486        -0.452373        -0.690826
 H         4.290253        -0.547163        -0.955750
