19
Iteration:  1195
 C         1.691694         2.147128        -0.556183
 C         2.108101         0.970291         0.392784
 C         2.485491         1.067831         1.944480
 C         2.486190        -0.520486         1.740856
 O         3.277144        -1.212045         2.602575
 C         0.993290        -0.923931         1.659465
 C         1.075522        -0.265717         0.250252
 C         2.538704        -0.516250         0.177349
 O         3.224357        -1.117484        -0.818297
 H         0.853950         1.734219        -1.099293
 H         1.551474         3.029833         0.050932
 H         2.471184         2.314876        -1.326785
 H         3.412790         1.589311         2.093109
 H         1.748739         1.542354         2.800550
 H         3.782059        -0.551402         3.079676
 H         0.945470        -1.961336         1.470590
 H         0.175291        -0.627638         2.324542
 H         0.314169        -0.286040        -0.593293
 H         2.948381        -2.008632        -0.908895
