19
Iteration:  3422
 C         1.756605         2.136996        -0.613954
 C         2.056586         0.982189         0.400135
 C         2.329232         1.050049         1.883960
 C         2.385138        -0.535719         1.847473
 O         3.149656        -1.215577         2.816469
 C         0.936423        -1.130310         1.488391
 C         1.132812        -0.397691         0.140977
 C         2.610161        -0.319963         0.220789
 O         3.365075        -1.015804        -0.764614
 H         2.646721         2.542764        -1.018496
 H         0.970457         1.835059        -1.303099
 H         1.306624         3.026173        -0.117030
 H         3.333670         1.479804         2.056544
 H         1.517925         1.539488         2.516323
 H         4.082940        -0.881427         2.775554
 H         1.249956        -2.257002         1.370356
 H         0.091062        -1.083588         2.167469
 H         0.683964        -0.419126        -0.827461
 H         4.160168        -0.499290        -1.101808
