19
Iteration:    53charge 0 multiplicity 1
 C         1.774816         2.001620        -0.571826
 C         1.863622         0.971932         0.429450
 C         2.367083         1.087249         1.819641
 C         2.494868        -0.552107         1.747672
 O         3.313770        -1.190421         2.643564
 C         0.976107        -1.061609         1.587977
 C         1.001703        -0.331131         0.238916
 C         2.510746        -0.360440         0.190841
 O         3.437714        -0.924370        -0.740937
 H         2.347209         1.781815        -1.477890
 H         0.799114         2.209289        -1.016663
 H         2.072091         3.080799        -0.255923
 H         3.362767         1.701715         1.860327
 H         1.721870         1.445345         2.608504
 H         2.783875        -1.684781         3.265858
 H         0.836687        -2.158930         1.441680
 H         0.255684        -0.916026         2.378252
 H         0.496044        -0.497191        -0.650877
 H         4.207912        -1.171937        -0.158694
