19
Iteration:  3494
 C         1.887770         2.113901        -0.590446
 C         1.901360         0.915727         0.311542
 C         2.396140         0.978425         1.811288
 C         2.408213        -0.533547         1.853003
 O         3.190239        -1.182344         2.880285
 C         0.925886        -1.127020         1.569463
 C         1.046730        -0.440630         0.139822
 C         2.566361        -0.407045         0.246021
 O         3.339162        -0.797944        -0.875554
 H         2.686058         2.904169        -0.284957
 H         2.102264         1.716814        -1.605068
 H         0.939205         2.727901        -0.546967
 H         3.437808         1.323992         1.776724
 H         1.771575         1.359839         2.587629
 H         3.785130        -0.480278         3.253019
 H         1.185285        -2.162158         1.524018
 H         0.057302        -0.822169         2.281847
 H         0.595226        -0.628824        -0.801770
 H         4.138493        -1.237237        -0.595473
