19
Iteration:  1813charge 0 multiplicity 1
 C         1.815068         2.131975        -0.527589
 C         2.061324         0.913558         0.354127
 C         2.539175         0.934386         1.784699
 C         2.451860        -0.501275         1.748961
 O         3.255816        -1.378358         2.465076
 C         0.859176        -0.765891         1.804471
 C         0.883116        -0.255058         0.406272
 C         2.468578        -0.540025         0.196781
 O         3.406793        -0.914842        -0.755681
 H         2.740159         2.438245        -1.137081
 H         1.022382         1.721977        -1.241634
 H         1.567159         2.986521         0.148901
 H         3.485696         1.343096         1.800535
 H         1.901676         1.461359         2.527510
 H         4.178831        -1.211041         2.223692
 H         0.632253        -1.877176         1.754684
 H         0.303773        -0.266563         2.589576
 H         0.151627        -0.031177        -0.443805
 H         3.245714        -1.875448        -1.033918
