19
Iteration:  3667charge 0 multiplicity 1
 C         1.866425         2.174830        -0.655087
 C         1.992063         0.955225         0.383417
 C         2.183525         0.957575         1.870670
 C         2.382447        -0.547105         1.877211
 O         3.277427        -1.158875         2.775464
 C         0.999538        -1.133077         1.515919
 C         1.033039        -0.264462         0.222921
 C         2.583297        -0.424603         0.188026
 O         3.453808        -0.865686        -0.761018
 H         2.748927         2.780617        -0.641360
 H         1.914326         1.754457        -1.639458
 H         0.944174         2.707452        -0.613223
 H         3.074691         1.612316         2.087042
 H         1.429960         1.464957         2.568360
 H         3.001931        -2.049609         3.048188
 H         1.177428        -2.197084         1.249152
 H         0.108452        -1.177407         2.220698
 H         0.446883        -0.314000        -0.642398
 H         3.745538        -1.781374        -0.945572
