19
Iteration:  3287
 C         1.868622         2.051352        -0.511586
 C         2.030261         0.915540         0.416836
 C         2.212387         1.036150         1.956883
 C         2.419796        -0.590508         1.866244
 O         3.198188        -1.096483         2.844434
 C         1.010976        -1.077216         1.474928
 C         1.204131        -0.308808         0.112264
 C         2.652540        -0.447562         0.199167
 O         3.308348        -0.847911        -0.953506
 H         2.339203         3.043370        -0.225049
 H         2.239279         1.716795        -1.510668
 H         0.820620         2.456559        -0.571378
 H         3.234244         1.456170         2.256919
 H         1.397924         1.310858         2.715452
 H         2.921663        -1.951387         3.186308
 H         0.961245        -2.136760         1.137052
 H         0.153069        -0.781090         2.230145
 H         0.504467        -0.085947        -0.681705
 H         3.316875        -1.839272        -1.215547
