19
Iteration:  3988
 C         1.864243         2.179592        -0.493608
 C         1.953568         0.926672         0.374340
 C         2.086857         0.922220         1.866588
 C         2.380620        -0.585570         1.826715
 O         3.264312        -1.105993         2.796223
 C         0.966778        -1.174271         1.428484
 C         1.157290        -0.390651         0.095092
 C         2.712246        -0.313668         0.251260
 O         3.494031        -0.803895        -0.769260
 H         2.809815         2.780513        -0.512747
 H         1.597604         1.862533        -1.522716
 H         0.945744         2.783046        -0.195135
 H         2.863110         1.396825         2.416706
 H         1.099110         1.078739         2.429530
 H         2.615421        -1.693963         3.257227
 H         1.003631        -2.226832         1.303899
 H         0.120616        -0.859282         2.184216
 H         0.965590        -0.716416        -0.984214
 H         3.172989        -1.589339        -1.238095
