19
Iteration:  1985
 C         1.799724         2.066282        -0.577670
 C         2.005081         0.978686         0.491109
 C         2.552632         1.072503         1.897990
 C         2.443334        -0.600606         1.768374
 O         3.215246        -1.372602         2.537545
 C         0.917889        -0.859102         1.649455
 C         0.957822        -0.283621         0.290354
 C         2.491318        -0.420804         0.182847
 O         3.376316        -0.936867        -0.749557
 H         0.772996         1.800911        -0.807755
 H         1.918018         3.064011        -0.114216
 H         2.484966         2.071722        -1.452214
 H         3.648777         1.489489         1.880670
 H         1.910887         1.671959         2.528485
 H         4.138417        -1.447715         2.191294
 H         0.730540        -1.902157         1.909469
 H         0.350880        -0.305652         2.359780
 H         0.281924        -0.132508        -0.584240
 H         3.053108        -1.787047        -1.192661
