19
Iteration:  4719charge 0 multiplicity 1
 C         1.699504         2.150456        -0.540350
 C         1.863860         0.942097         0.377418
 C         2.179694         1.035315         1.939729
 C         2.390930        -0.554535         1.877263
 O         3.206977        -1.302415         2.751988
 C         0.985308        -0.944622         1.486685
 C         1.216789        -0.439510         0.117898
 C         2.689763        -0.384137         0.196161
 O         3.622261        -0.865940        -0.779545
 H         1.035596         2.867556         0.023737
 H         2.633040         2.682652        -0.489238
 H         1.322486         2.000198        -1.539597
 H         3.056547         1.606711         2.188522
 H         1.418761         1.410200         2.715572
 H         3.235564        -2.135890         2.259446
 H         0.694567        -2.021947         1.582253
 H         0.252108        -0.295679         2.023894
 H         0.612916        -0.627169        -0.728983
 H         2.947715        -1.436732        -1.293826
