19
Iteration:  1480
 C         1.960152         1.967645        -0.661717
 C         1.858108         0.913973         0.416483
 C         2.672629         0.981542         1.846114
 C         2.483807        -0.620620         1.796295
 O         3.315292        -1.360523         2.493591
 C         0.864442        -0.795769         1.876163
 C         0.829130        -0.350556         0.409479
 C         2.392172        -0.444345         0.200385
 O         3.289236        -0.713859        -0.815412
 H         1.623755         3.035089        -0.542224
 H         2.960596         2.020243        -1.161203
 H         1.343954         1.808401        -1.604972
 H         3.635713         1.470968         1.721208
 H         2.128462         1.557694         2.678143
 H         4.217355        -1.231313         2.064004
 H         0.643171        -1.833081         1.952459
 H         0.270425        -0.201675         2.467769
 H         0.149880        -0.606224        -0.324159
 H         3.390723        -1.636405        -0.943100
