19
Iteration:  2719charge 0 multiplicity 1
 C         1.812624         2.082568        -0.549243
 C         1.914092         0.907678         0.379975
 C         2.283733         1.034694         1.914168
 C         2.416210        -0.529472         1.869471
 O         3.169428        -1.200002         2.799221
 C         1.029805        -1.066367         1.498650
 C         1.087953        -0.379657         0.146951
 C         2.589828        -0.347025         0.150995
 O         3.538265        -0.857457        -0.789134
 H         2.708911         2.669668        -0.263533
 H         1.864018         1.832425        -1.609916
 H         0.939271         2.694237        -0.437332
 H         3.228901         1.532310         2.201515
 H         1.526559         1.345729         2.677130
 H         3.123220        -2.089650         2.387949
 H         1.041957        -2.198805         1.397346
 H         0.284789        -0.740856         2.173760
 H         0.237892        -0.193369        -0.560979
 H         2.891428        -1.338959        -1.299348
