19
Iteration:  1254charge 0 multiplicity 1
 C         1.958794         2.101953        -0.596697
 C         1.877801         0.914005         0.327879
 C         2.513446         1.004815         1.787248
 C         2.425407        -0.452351         1.760259
 O         3.243077        -1.248462         2.506259
 C         1.047983        -0.947577         1.799170
 C         0.871907        -0.412286         0.308618
 C         2.381825        -0.443357         0.212514
 O         3.344595        -0.868062        -0.669647
 H         1.103701         2.044007        -1.316893
 H         1.727833         3.060726        -0.029294
 H         2.968206         2.080859        -1.106934
 H         3.631322         1.282601         1.629253
 H         1.906769         1.477675         2.571747
 H         4.141356        -0.974894         2.347729
 H         1.288112        -2.031765         1.662379
 H         0.284557        -0.824333         2.471657
 H         0.055087        -0.521061        -0.372207
 H         3.325376        -1.891658        -0.677721
