19
Iteration:   163charge 0 multiplicity 1
 C         1.771466         2.043771        -0.621112
 C         1.856213         0.959291         0.396351
 C         2.354755         1.079085         1.825869
 C         2.465235        -0.479569         1.776413
 O         3.180339        -1.252508         2.647468
 C         1.073516        -1.087376         1.603994
 C         0.978414        -0.313962         0.231947
 C         2.519612        -0.403136         0.199646
 O         3.429617        -0.938008        -0.707604
 H         1.547242         1.471029        -1.523955
 H         1.036334         2.811379        -0.338513
 H         2.785413         2.488063        -0.674338
 H         3.413857         1.477217         1.882262
 H         1.865409         1.526044         2.677739
 H         4.036994        -0.915559         2.999618
 H         1.123000        -2.173002         1.386710
 H         0.265233        -0.969212         2.377257
 H         0.433433        -0.526018        -0.698227
 H         4.262219        -0.705344        -0.332776
