19
Iteration:   211
 C         1.809049         2.060164        -0.567092
 C         1.901274         0.814704         0.308367
 C         2.277763         0.983890         1.792821
 C         2.429935        -0.558536         1.826553
 O         3.343542        -1.182042         2.653269
 C         0.884361        -0.934013         1.570916
 C         1.000750        -0.355381         0.251140
 C         2.629987        -0.508907         0.261286
 O         3.477073        -0.788021        -0.765095
 H         0.866979         1.944586        -1.105549
 H         1.723508         2.864317         0.166304
 H         2.661610         2.215799        -1.167461
 H         3.109479         1.620614         1.837383
 H         1.440575         1.378526         2.438232
 H         3.522679        -0.591202         3.398083
 H         0.908790        -1.980994         1.526692
 H         0.221144        -0.637798         2.247987
 H         0.148998        -0.563513        -0.494991
 H         3.847388        -1.735733        -0.638422
