19
Iteration:  1219
 C         1.806160         2.221440        -0.495409
 C         1.955225         0.917832         0.313213
 C         2.350448         0.979413         1.742663
 C         2.448984        -0.602146         1.809843
 O         3.431172        -1.223412         2.634015
 C         0.897297        -0.869349         1.716328
 C         1.008295        -0.303081         0.260280
 C         2.581731        -0.425515         0.170895
 O         3.279069        -1.112835        -0.809422
 H         0.856354         2.144721        -1.041682
 H         1.867897         2.977603         0.316961
 H         2.644678         2.401838        -1.254183
 H         3.359124         1.507815         1.921780
 H         1.646015         1.545301         2.514492
 H         4.114026        -0.572469         2.748017
 H         0.657451        -1.935033         1.641861
 H         0.239863        -0.409547         2.409790
 H         0.126337        -0.266457        -0.521924
 H         3.320779        -2.031694        -0.397272
