19
Iteration:  3700charge 0 multiplicity 1
 C         1.935700         2.060573        -0.513868
 C         1.805605         0.887346         0.375752
 C         2.273930         0.970465         1.808387
 C         2.370045        -0.556497         1.759411
 O         3.294817        -1.176299         2.517430
 C         0.862370        -1.006816         1.560745
 C         1.024117        -0.436950         0.206224
 C         2.557255        -0.439059         0.224102
 O         3.570912        -0.729316        -0.618319
 H         2.542998         2.811003        -0.052144
 H         2.346265         1.578581        -1.363923
 H         1.115044         2.675527        -0.802460
 H         3.322323         1.306717         1.516687
 H         1.584006         1.299585         2.686004
 H         2.922768        -1.260739         3.397512
 H         0.753835        -2.098274         1.734820
 H         0.190596        -0.437335         2.286745
 H         0.345400        -0.513716        -0.627619
 H         3.852233        -1.597346        -0.464074
