19
Iteration:  4618
 C         1.874619         2.088869        -0.530114
 C         1.912090         0.896136         0.385295
 C         2.220283         0.978965         1.888087
 C         2.409551        -0.515945         1.853016
 O         3.202623        -1.375712         2.627473
 C         0.889381        -0.925758         1.610754
 C         1.051714        -0.456144         0.186322
 C         2.575045        -0.453107         0.136030
 O         3.607828        -0.687514        -0.696712
 H         0.939958         2.303002        -1.116913
 H         2.136146         3.014518         0.021078
 H         2.560350         1.984460        -1.370699
 H         3.179877         1.635648         2.037276
 H         1.299769         1.286636         2.463130
 H         4.097362        -1.086379         2.349301
 H         0.790396        -2.092493         1.716334
 H         0.131656        -0.487584         2.273549
 H         0.200835        -0.540470        -0.556916
 H         3.281338        -1.347720        -1.301494
