19
Iteration:   951charge 0 multiplicity 1
 C         1.896613         1.942566        -0.651756
 C         2.006056         0.920441         0.391624
 C         2.450830         1.009494         1.805995
 C         2.515520        -0.541179         1.834089
 O         3.329112        -1.301923         2.624120
 C         0.977846        -0.911885         1.732044
 C         0.919032        -0.245038         0.383225
 C         2.482719        -0.382073         0.169716
 O         3.237927        -0.870299        -0.860998
 H         1.504951         1.351041        -1.561847
 H         0.985705         2.536140        -0.365625
 H         2.875944         2.465244        -0.684890
 H         3.291620         1.579149         1.925957
 H         1.694180         1.370146         2.535213
 H         4.107413        -0.691189         2.839726
 H         0.761324        -1.984539         1.747051
 H         0.246598        -0.399018         2.342829
 H         0.145990        -0.069267        -0.417702
 H         3.103041        -1.894637        -0.800255
