19
Iteration:  3411
 C         1.762583         2.088602        -0.597806
 C         1.967985         1.064778         0.398530
 C         2.311256         1.105552         1.868979
 C         2.362504        -0.493384         1.837111
 O         3.138940        -1.285957         2.677990
 C         0.990053        -1.105918         1.494798
 C         1.123870        -0.304607         0.230816
 C         2.604564        -0.385995         0.225726
 O         3.456706        -1.051309        -0.654797
 H         2.621187         2.310127        -1.191362
 H         1.159767         1.624721        -1.395984
 H         1.257017         2.983177        -0.215610
 H         3.293725         1.538256         2.121915
 H         1.543163         1.590474         2.557027
 H         4.070557        -1.063645         2.575399
 H         1.227393        -2.172958         1.070703
 H         0.157100        -1.177996         2.169685
 H         0.530075        -0.561064        -0.610957
 H         3.901770        -0.293791        -1.184539
