19
Iteration:   572
 C         1.851526         2.088981        -0.644454
 C         1.902524         0.933431         0.354233
 C         2.165251         1.072088         1.868539
 C         2.377306        -0.553700         1.838614
 O         3.342433        -1.189300         2.628544
 C         1.012199        -1.034820         1.642183
 C         1.049686        -0.452554         0.205255
 C         2.536135        -0.444140         0.194184
 O         3.437549        -0.962435        -0.737194
 H         0.848278         2.257065        -1.174134
 H         1.939838         2.951660         0.144841
 H         2.761602         2.187443        -1.300386
 H         3.090052         1.652511         2.078437
 H         1.349135         1.471152         2.618129
 H         3.815001        -0.561033         3.223109
 H         1.086592        -2.043829         1.407409
 H         0.345613        -0.822904         2.432625
 H         0.176893        -0.621663        -0.565905
 H         4.141790        -0.351406        -0.879818
