19
Iteration:  4510charge 0 multiplicity 1
 C         1.913290         2.202759        -0.415986
 C         1.857138         0.969967         0.414753
 C         2.215530         0.959687         1.815763
 C         2.316944        -0.507088         1.807630
 O         3.255153        -1.186007         2.654871
 C         0.915597        -1.175211         1.491832
 C         1.027135        -0.491500         0.126282
 C         2.539495        -0.390445         0.199532
 O         3.601943        -0.801780        -0.652848
 H         1.532566         3.188592         0.105606
 H         3.035252         2.381838        -0.601834
 H         1.485293         2.046535        -1.437027
 H         3.195051         1.448319         1.918317
 H         1.510265         1.406197         2.486308
 H         4.214779        -1.106226         2.439125
 H         1.044638        -2.309913         1.423601
 H         0.045403        -0.891785         2.049342
 H         0.263357        -0.684966        -0.706009
 H         3.308923        -1.472079        -1.226463
