19
Iteration:  1980
 C         1.795452         2.067312        -0.555344
 C         2.030191         0.991130         0.484809
 C         2.561358         1.036256         1.907571
 C         2.469787        -0.583279         1.706838
 O         3.215524        -1.349795         2.597189
 C         0.950291        -0.873507         1.632518
 C         0.949615        -0.235394         0.270665
 C         2.424492        -0.481307         0.137217
 O         3.380305        -0.935198        -0.744525
 H         0.728414         1.906130        -0.856975
 H         1.792062         3.055661        -0.008252
 H         2.547648         2.079898        -1.443749
 H         3.521197         1.436362         1.843399
 H         2.033667         1.696853         2.660922
 H         4.110377        -1.381398         2.276263
 H         0.766903        -1.955394         1.784001
 H         0.354435        -0.264985         2.402090
 H         0.202897        -0.303764        -0.540966
 H         3.005671        -1.752041        -1.016432
