19
Iteration:  2861charge 0 multiplicity 1
 C         1.804721         2.197530        -0.461383
 C         1.939443         0.971046         0.410689
 C         2.325563         0.949744         1.863469
 C         2.401373        -0.589072         1.782116
 O         3.146316        -1.102982         2.900106
 C         0.939462        -1.123869         1.510330
 C         1.116255        -0.352461         0.155852
 C         2.571878        -0.378555         0.118283
 O         3.422582        -0.996732        -0.912345
 H         2.830045         2.538962        -0.415814
 H         1.598854         1.950149        -1.461828
 H         1.182468         3.000396        -0.190618
 H         3.389040         1.275393         2.006056
 H         1.653329         1.308287         2.663542
 H         3.695692        -1.876949         2.736517
 H         1.098482        -2.258452         1.370403
 H         0.175765        -0.753407         2.145553
 H         0.587595        -0.172254        -0.745124
 H         4.262465        -0.494346        -0.711006
