19
Iteration:  4570charge 0 multiplicity 1
 C         1.712022         2.023891        -0.643349
 C         2.025013         1.026434         0.449377
 C         2.460285         0.994618         1.958246
 C         2.432314        -0.572058         1.856127
 O         3.044373        -1.353551         2.807459
 C         1.060717        -1.163226         1.429553
 C         1.057832        -0.340041         0.131522
 C         2.592211        -0.307484         0.170600
 O         3.421471        -0.705188        -0.834709
 H         0.671028         2.206831        -0.764008
 H         2.088323         2.953139        -0.214313
 H         2.111253         1.878530        -1.681178
 H         3.549942         1.070967         1.989545
 H         1.948304         1.484742         2.816809
 H         3.428470        -0.713450         3.439514
 H         1.159707        -2.236475         1.337264
 H         0.149868        -0.958521         2.095808
 H         0.297874        -0.137931        -0.564912
 H         3.824688        -1.534755        -0.493502
