19
Iteration:  4730
 C         1.711753         2.174007        -0.431655
 C         1.882823         0.898403         0.338336
 C         2.235811         0.955103         1.789413
 C         2.444673        -0.503884         1.788733
 O         3.125457        -1.286259         2.754364
 C         0.937350        -0.942644         1.572378
 C         1.213567        -0.490112         0.142682
 C         2.728059        -0.349548         0.193116
 O         3.607108        -0.792272        -0.741758
 H         1.013378         2.842793         0.136095
 H         2.645942         2.606394        -0.746442
 H         1.205499         1.934915        -1.359600
 H         3.170339         1.468556         1.888210
 H         1.378759         1.240279         2.496487
 H         3.036143        -2.253666         2.548236
 H         0.811173        -2.032066         1.789993
 H         0.143289        -0.378820         2.133974
 H         0.539344        -0.572792        -0.687856
 H         3.272461        -1.471958        -1.358416
