19
Iteration:  3517charge 0 multiplicity 1
 C         1.820325         1.970381        -0.716985
 C         1.929142         1.015642         0.448901
 C         2.219935         1.006698         1.960053
 C         2.424025        -0.573185         1.801363
 O         3.205335        -1.262825         2.694659
 C         1.020574        -1.028503         1.542363
 C         1.079649        -0.276734         0.253408
 C         2.557993        -0.328791         0.208012
 O         3.414493        -0.906370        -0.763605
 H         2.559138         2.864418        -0.601792
 H         2.207816         1.266926        -1.467043
 H         0.879092         2.498533        -1.038461
 H         3.213456         1.457362         2.089435
 H         1.415690         1.412920         2.521595
 H         4.084930        -0.867229         2.667707
 H         1.051757        -2.060587         1.225499
 H         0.193189        -0.763346         2.288511
 H         0.375308        -0.260906        -0.504703
 H         4.245595        -1.251806        -0.286172
