19
Iteration:   623charge 0 multiplicity 1
 C         1.739088         2.107029        -0.610958
 C         1.982059         0.949882         0.386262
 C         2.309365         1.006233         1.827429
 C         2.399194        -0.479338         1.959510
 O         3.243909        -1.135853         2.840842
 C         1.046863        -1.148089         1.540518
 C         1.093492        -0.343935         0.192342
 C         2.577900        -0.392288         0.140894
 O         3.293550        -0.956839        -0.885293
 H         1.620930         1.509929        -1.541867
 H         0.882554         2.720018        -0.291689
 H         2.600979         2.702886        -0.639296
 H         3.341477         1.439864         2.005073
 H         1.613492         1.435348         2.484249
 H         4.174145        -0.876671         3.057744
 H         1.403753        -2.216540         1.347895
 H         0.100194        -0.944622         2.230147
 H         0.369637        -0.570264        -0.703507
 H         4.278566        -1.093092        -0.714719
