19
Iteration:  1752
 C         1.868439         2.142225        -0.512605
 C         2.081582         0.973406         0.396194
 C         2.449775         1.056957         1.874012
 C         2.503223        -0.531676         1.813637
 O         3.314439        -1.340218         2.665120
 C         0.963496        -0.981167         1.713976
 C         1.004553        -0.205634         0.369662
 C         2.514038        -0.403128         0.129129
 O         3.092993        -1.066313        -0.995889
 H         2.504076         2.922182        -0.153926
 H         2.311949         2.069276        -1.470461
 H         0.884332         2.538512        -0.762042
 H         3.531028         1.491502         2.034901
 H         1.685114         1.627148         2.436158
 H         4.193520        -0.888423         2.744736
 H         0.845941        -2.050619         1.613747
 H         0.390367        -0.637635         2.643620
 H         0.348585        -0.096996        -0.545081
 H         2.928916        -2.074780        -0.909647
