19
Iteration:  2888
 C         1.850890         2.250956        -0.466510
 C         1.946507         0.912640         0.249582
 C         2.311990         0.966176         1.748104
 C         2.407695        -0.571571         1.835478
 O         3.119178        -1.204851         2.902487
 C         1.096341        -1.121380         1.554464
 C         1.098278        -0.381288         0.199729
 C         2.565310        -0.329486         0.133088
 O         3.389813        -0.918123        -0.850055
 H         2.805516         2.752702        -0.804210
 H         1.097259         2.153837        -1.337668
 H         1.530293         3.033292         0.350642
 H         3.358604         1.275097         1.881600
 H         1.528385         1.483169         2.385417
 H         2.725043        -2.078888         3.015363
 H         1.264459        -2.167689         1.338829
 H         0.265360        -0.781485         2.258174
 H         0.436996        -0.797312        -0.633704
 H         4.287908        -0.601597        -0.588786
