19
Iteration:  2231charge 0 multiplicity 1
 C         1.975189         1.997809        -0.626855
 C         1.929869         0.926575         0.481784
 C         2.326759         1.005942         1.904996
 C         2.508500        -0.508109         1.732627
 O         3.345081        -1.301640         2.489810
 C         0.871445        -0.963729         1.559151
 C         0.851013        -0.206979         0.365660
 C         2.387747        -0.474613         0.175898
 O         3.470509        -0.851563        -0.671878
 H         2.661929         1.619264        -1.442429
 H         1.004457         2.224441        -1.089746
 H         2.335470         2.872339        -0.165192
 H         3.323485         1.315395         2.032697
 H         1.746959         1.362955         2.746413
 H         4.142508        -0.746634         2.761199
 H         0.817511        -2.009504         1.531248
 H         0.143457        -0.594524         2.314857
 H        -0.040977        -0.097226        -0.268952
 H         3.380336        -1.801468        -0.875571
