19
Iteration:  2426charge 0 multiplicity 1
 C         1.898779         2.037935        -0.595957
 C         1.865474         0.970418         0.411768
 C         2.461002         0.948839         1.875802
 C         2.355265        -0.521233         1.743133
 O         3.271486        -1.313084         2.572627
 C         0.886527        -1.005928         1.602371
 C         0.957596        -0.325605         0.174578
 C         2.457566        -0.401340         0.203077
 O         3.504770        -0.771646        -0.603906
 H         0.939831         2.613592        -0.451065
 H         2.790592         2.650358        -0.606660
 H         1.738799         1.678026        -1.574929
 H         3.597060         1.195628         2.007426
 H         1.758270         1.262452         2.681282
 H         4.101513        -0.769725         2.629780
 H         0.988019        -2.092572         1.618392
 H         0.122766        -0.676598         2.331462
 H         0.366424        -0.222353        -0.713477
 H         3.358631        -1.701131        -0.644330
