19
Iteration:  2788
 C         1.886241         2.019546        -0.570967
 C         1.772314         0.954702         0.441699
 C         2.388087         0.995655         1.862961
 C         2.400911        -0.474063         1.746771
 O         3.257222        -1.263005         2.500649
 C         0.999569        -1.042590         1.564479
 C         0.971012        -0.300146         0.179337
 C         2.426800        -0.401968         0.167307
 O         3.542774        -0.842832        -0.540024
 H         2.402111         2.864236         0.072322
 H         2.528647         1.847790        -1.489526
 H         0.903496         2.369254        -1.024565
 H         3.363197         1.522880         1.971833
 H         1.717646         1.423912         2.636128
 H         2.769388        -2.114799         2.625395
 H         1.126404        -2.121218         1.317994
 H         0.253922        -0.785680         2.345788
 H         0.304997        -0.438878        -0.643278
 H         4.459477        -0.867368        -0.129421
