19
Iteration:  3186
 C         1.871689         2.022752        -0.736978
 C         1.945870         1.006834         0.396669
 C         2.178784         1.029116         1.992147
 C         2.395343        -0.589425         1.808662
 O         3.410307        -1.316884         2.531678
 C         0.862181        -1.028034         1.583720
 C         1.040198        -0.275015         0.170373
 C         2.500970        -0.381666         0.226889
 O         3.564172        -0.769381        -0.544856
 H         2.758561         2.041917        -1.347627
 H         0.936012         1.767596        -1.272271
 H         1.639097         3.088883        -0.564136
 H         3.092004         1.661131         2.112538
 H         1.323494         1.310058         2.738263
 H         3.122329        -2.257329         2.466206
 H         0.661712        -2.028117         1.351110
 H         0.191799        -0.544671         2.418419
 H         0.332430        -0.326720        -0.726128
 H         3.596789        -1.721593        -0.504102
