19
Iteration:   189
 C         1.781348         2.107613        -0.645081
 C         1.889041         0.942176         0.352720
 C         2.336700         1.022810         1.813112
 C         2.385280        -0.600281         1.802955
 O         3.298850        -1.246692         2.695915
 C         0.935599        -0.988587         1.723808
 C         1.079469        -0.475820         0.187523
 C         2.523335        -0.414370         0.155093
 O         3.466810        -0.833129        -0.794631
 H         1.046858         1.870769        -1.422792
 H         1.447145         2.953807        -0.017169
 H         2.756654         2.334051        -0.983534
 H         3.320895         1.336906         2.032516
 H         1.654480         1.451462         2.599594
 H         3.623130        -0.581038         3.343027
 H         0.735032        -2.017704         1.771295
 H         0.272288        -0.492153         2.302276
 H         0.369297        -0.528719        -0.777374
 H         4.125683        -1.162273        -0.205879
