19
Iteration:  3479
 C         1.907310         2.170052        -0.465327
 C         1.948388         0.867051         0.350329
 C         2.337581         0.988540         1.745994
 C         2.375324        -0.533293         1.924199
 O         3.123049        -1.114908         2.877916
 C         1.035925        -1.035192         1.595114
 C         1.082719        -0.542873         0.225728
 C         2.532797        -0.556455         0.038195
 O         3.392546        -0.800442        -0.968097
 H         2.806138         2.714688        -0.252699
 H         1.972867         2.083098        -1.587793
 H         1.006841         2.769023        -0.234598
 H         3.367898         1.397358         1.798279
 H         1.730696         1.709574         2.392563
 H         3.411777        -0.446737         3.507287
 H         1.017865        -2.180744         1.455949
 H         0.164841        -0.812626         2.250016
 H         0.217263        -0.715362        -0.521378
 H         4.177640        -1.155142        -0.588332
