19
Iteration:  2235
 C         1.980253         1.996995        -0.673204
 C         1.934037         0.943802         0.439011
 C         2.343328         0.953676         1.917232
 C         2.466519        -0.514509         1.736004
 O         3.355488        -1.292480         2.547101
 C         0.856434        -0.987288         1.570320
 C         0.869942        -0.152164         0.371794
 C         2.413194        -0.479295         0.177386
 O         3.468701        -0.834862        -0.721968
 H         2.510328         1.632304        -1.492229
 H         0.981059         2.257436        -1.029033
 H         2.287717         2.911895        -0.102109
 H         3.400869         1.348631         2.174335
 H         1.688924         1.385796         2.838247
 H         4.144257        -0.830794         2.788077
 H         0.842970        -2.118963         1.510221
 H         0.071656        -0.685405         2.353913
 H        -0.044071        -0.142759        -0.166672
 H         3.337834        -1.836773        -0.792514
