19
Iteration:  2980charge 0 multiplicity 1
 C         1.971212         2.089534        -0.585352
 C         1.729224         0.968949         0.463120
 C         2.300731         1.051600         1.856417
 C         2.386934        -0.484451         1.743388
 O         3.261728        -1.326653         2.382608
 C         0.952102        -1.066997         1.552775
 C         1.042439        -0.438195         0.180465
 C         2.486531        -0.318537         0.263557
 O         3.477525        -0.869905        -0.527565
 H         3.033947         2.480164        -0.471826
 H         1.787447         1.616574        -1.575081
 H         1.244691         2.929966        -0.432715
 H         3.318777         1.437176         1.828073
 H         1.785185         1.267375         2.751632
 H         3.594175        -0.815350         3.150945
 H         1.015661        -2.185273         1.555368
 H         0.215554        -0.639506         2.214072
 H         0.340967        -0.453196        -0.716664
 H         4.168250        -1.102684         0.068340
