19
Iteration:  1200
 C         1.704571         2.172344        -0.537309
 C         2.119290         0.969341         0.360815
 C         2.450468         1.039529         1.963907
 C         2.472936        -0.501019         1.751619
 O         3.311344        -1.197359         2.596735
 C         0.989430        -0.913666         1.652351
 C         1.089304        -0.255336         0.255855
 C         2.480902        -0.540433         0.183060
 O         3.226268        -1.119072        -0.817248
 H         0.773714         1.845335        -1.060816
 H         1.517238         3.076484         0.098607
 H         2.526202         2.221823        -1.279822
 H         3.474097         1.561536         2.058109
 H         1.713904         1.377711         2.584624
 H         3.880464        -0.552251         3.048235
 H         0.807864        -2.045181         1.514814
 H         0.196766        -0.482975         2.298098
 H         0.482061        -0.439561        -0.646485
 H         3.117047        -2.137015        -0.901924
