19
Iteration:  3169charge 0 multiplicity 1
 C         1.908159         2.028101        -0.682982
 C         1.826513         0.930032         0.428335
 C         2.182295         1.072848         1.852360
 C         2.360979        -0.527441         1.737596
 O         3.326847        -1.301630         2.376686
 C         0.973242        -1.032786         1.604850
 C         0.966872        -0.314815         0.284183
 C         2.529008        -0.304634         0.264339
 O         3.631583        -0.802883        -0.468248
 H         2.971941         1.953468        -1.094089
 H         1.253110         1.921545        -1.551561
 H         1.969831         2.984861        -0.161903
 H         3.155862         1.422606         2.188426
 H         1.329363         1.321596         2.389640
 H         2.873867        -2.084682         2.745942
 H         1.070850        -2.214793         1.554052
 H         0.280124        -0.706479         2.302119
 H         0.144909        -0.366149        -0.391013
 H         3.430711        -1.746471        -0.627528
