19
Iteration:   240
 C         1.843430         2.157083        -0.680374
 C         1.864449         1.001859         0.407106
 C         2.291092         0.999505         1.883510
 C         2.398703        -0.549645         1.787575
 O         3.279021        -1.156732         2.605848
 C         1.000188        -1.162684         1.590312
 C         1.022085        -0.438641         0.255177
 C         2.565657        -0.333104         0.193343
 O         3.489078        -0.918805        -0.635835
 H         0.837683         2.001704        -1.132707
 H         1.904997         3.229142        -0.379939
 H         2.665866         1.911267        -1.373145
 H         3.330744         1.461021         1.823016
 H         1.591892         1.424655         2.610861
 H         3.477466        -0.615037         3.363312
 H         1.160102        -2.284240         1.614641
 H         0.238367        -0.738382         2.491708
 H         0.382269        -0.821310        -0.625165
 H         3.069973        -1.434900        -1.395917
