19
Iteration:  2554charge 0 multiplicity 1
 C         1.843937         2.115563        -0.582107
 C         1.869013         0.947930         0.379061
 C         2.227270         1.004471         1.877245
 C         2.350550        -0.589457         1.880092
 O         3.247148        -1.386147         2.589346
 C         0.925592        -0.972982         1.525875
 C         1.080206        -0.373844         0.212017
 C         2.584450        -0.374900         0.286594
 O         3.528375        -0.766645        -0.741881
 H         2.788351         2.715681        -0.282131
 H         2.136280         1.703850        -1.581738
 H         0.937552         2.809492        -0.682980
 H         3.124140         1.578593         1.924541
 H         1.573189         1.574989         2.527645
 H         4.109366        -1.009093         2.776896
 H         0.933804        -2.124757         1.596770
 H         0.243559        -0.475505         2.211660
 H         0.449799        -0.645332        -0.608252
 H         3.491708        -1.749723        -0.634098
