19
Iteration:  2851
 C         1.860364         2.074954        -0.421436
 C         1.905071         0.947838         0.456734
 C         2.307753         0.926362         1.895176
 C         2.350111        -0.585387         1.802033
 O         3.181038        -1.078779         2.822055
 C         0.934140        -1.062918         1.472912
 C         1.133833        -0.306024         0.143225
 C         2.668315        -0.332410         0.102071
 O         3.388500        -0.981458        -0.859162
 H         2.770312         2.709493        -0.437331
 H         1.688984         1.720256        -1.404650
 H         1.016988         2.638384        -0.158150
 H         3.347071         1.315520         2.106687
 H         1.589379         1.488955         2.535481
 H         3.665729        -1.847891         2.451793
 H         0.754633        -2.209034         1.417165
 H         0.128759        -0.746183         2.095351
 H         0.465407        -0.474387        -0.666274
 H         4.310733        -0.561603        -0.997977
