19
Iteration:  3868charge 0 multiplicity 1
 C         1.868386         2.114886        -0.649520
 C         1.881161         0.990951         0.366531
 C         2.180475         1.010649         1.935257
 C         2.372904        -0.585228         1.802736
 O         3.308313        -1.313840         2.703019
 C         0.913436        -1.162922         1.469113
 C         1.090530        -0.363531         0.138151
 C         2.564943        -0.322384         0.225191
 O         3.593510        -0.729549        -0.686176
 H         2.637297         2.841203        -0.649176
 H         1.651557         1.675652        -1.572816
 H         1.032639         2.726618        -0.428055
 H         3.188069         1.348801         2.174272
 H         1.321863         1.375422         2.671355
 H         2.885757        -1.076454         3.537874
 H         0.986277        -2.172790         1.192073
 H         0.065034        -0.906344         2.201010
 H         0.485336        -0.619390        -0.681228
 H         3.638532        -1.665030        -0.414235
