19
Iteration:  3075charge 0 multiplicity 1
 C         1.773316         2.133560        -0.585393
 C         1.964316         0.996075         0.317400
 C         2.370694         1.029679         1.834907
 C         2.421077        -0.562674         1.871996
 O         3.032169        -1.350170         2.958613
 C         1.050792        -1.123858         1.568762
 C         1.174674        -0.321426         0.150643
 C         2.642842        -0.316331         0.229438
 O         3.398075        -0.809588        -0.911446
 H         2.266728         3.022547        -0.249183
 H         2.083275         1.791010        -1.598145
 H         0.686594         2.353113        -0.487956
 H         3.386828         1.444695         1.826162
 H         1.590705         1.573075         2.490277
 H         3.943541        -1.488025         2.679555
 H         1.268437        -2.146035         1.515055
 H         0.235377        -0.815959         2.334920
 H         0.722390        -0.615065        -0.788514
 H         2.927664        -1.562940        -1.367524
