19
Iteration:  1692
 C         2.014673         2.030722        -0.655999
 C         1.865391         0.966911         0.429331
 C         2.612082         1.010367         1.790669
 C         2.474396        -0.495107         1.888512
 O         3.257847        -1.422260         2.581480
 C         1.018450        -0.905050         1.742374
 C         0.873488        -0.311305         0.449392
 C         2.317253        -0.442994         0.132294
 O         3.225652        -0.789854        -0.862869
 H         1.826631         3.063559        -0.173243
 H         3.080794         1.905838        -1.089945
 H         1.257752         1.987503        -1.481291
 H         3.639527         1.193647         1.537443
 H         2.298485         1.856130         2.539516
 H         4.208496        -1.079017         2.635102
 H         1.187438        -2.003107         1.694163
 H         0.409418        -0.675198         2.551680
 H         0.003909        -0.396155        -0.109252
 H         2.998856        -1.686384        -1.167450
