19
Iteration:  4671charge 0 multiplicity 1
 C         1.950284         2.175978        -0.610375
 C         1.906439         0.981936         0.435787
 C         2.203260         0.977648         1.988625
 C         2.359860        -0.597098         1.710686
 O         3.320400        -1.115457         2.601969
 C         0.946432        -1.247906         1.442975
 C         0.925627        -0.212968         0.192022
 C         2.497598        -0.412478         0.199431
 O         3.517338        -0.864944        -0.540662
 H         0.926841         2.473492        -0.869169
 H         2.508552         3.022567        -0.133122
 H         2.484689         1.718811        -1.470477
 H         3.293059         1.359387         2.247241
 H         1.605165         1.473973         2.788718
 H         4.009322        -1.571169         2.070180
 H         1.122614        -2.337339         1.008602
 H         0.298823        -1.329526         2.343101
 H         0.294749        -0.312096        -0.751936
 H         3.346910        -1.763993        -0.762134
