19
Iteration:  2336
 C         1.821121         2.139438        -0.521598
 C         1.941189         0.997558         0.420143
 C         2.442107         0.961385         1.843667
 C         2.431942        -0.582431         1.838048
 O         3.236930        -1.231337         2.708190
 C         0.903078        -1.057401         1.502063
 C         1.021848        -0.280615         0.239140
 C         2.563761        -0.457787         0.142822
 O         3.388255        -0.901894        -0.764128
 H         0.864490         1.975264        -1.038390
 H         1.721752         2.996899         0.137291
 H         2.587800         2.214339        -1.295457
 H         3.610037         1.202138         1.862639
 H         2.019929         1.602894         2.720271
 H         3.973954        -0.620759         2.973849
 H         0.750938        -2.179030         1.323534
 H         0.075168        -0.634886         2.124069
 H         0.415122        -0.266800        -0.680404
 H         3.247078        -1.785813        -1.048091
