19
Iteration:  2407charge 0 multiplicity 1
 C         1.896284         2.041261        -0.576719
 C         1.880560         0.932445         0.480251
 C         2.347006         1.027736         1.902866
 C         2.367327        -0.494614         1.768549
 O         3.301772        -1.332789         2.415463
 C         0.882184        -1.006386         1.586202
 C         0.961859        -0.271938         0.228493
 C         2.467684        -0.451618         0.215882
 O         3.522152        -0.847938        -0.589805
 H         0.928591         2.547453        -0.713681
 H         2.611148         2.786399        -0.192140
 H         2.290376         1.663932        -1.548633
 H         3.314250         1.381923         1.713382
 H         1.953089         1.641174         2.663194
 H         4.152278        -0.817853         2.298858
 H         0.671700        -2.016648         1.432484
 H         0.158548        -0.585077         2.234193
 H         0.127134        -0.374154        -0.537174
 H         3.743154        -1.645110        -0.074735
