19
Iteration:  1214
 C         1.781388         2.186803        -0.502024
 C         2.002346         0.946728         0.335357
 C         2.367747         0.956071         1.764637
 C         2.450742        -0.555093         1.850613
 O         3.418307        -1.211966         2.617361
 C         0.907238        -0.871793         1.657652
 C         1.015476        -0.283483         0.263279
 C         2.554158        -0.455815         0.173266
 O         3.263843        -1.124668        -0.818746
 H         0.834852         2.201342        -1.055360
 H         1.807980         3.025396         0.193634
 H         2.508695         2.501905        -1.213404
 H         3.280012         1.385735         2.104542
 H         1.661498         1.438002         2.434019
 H         4.142111        -0.573287         2.857247
 H         0.689305        -1.952628         1.707498
 H         0.306043        -0.329623         2.483698
 H         0.382041        -0.372990        -0.556314
 H         3.297048        -2.013108        -0.502879
