19
Iteration:  3081
 C         1.790360         2.100852        -0.555534
 C         2.012172         0.956668         0.354808
 C         2.306145         0.990216         1.828373
 C         2.445050        -0.549213         1.866117
 O         3.029152        -1.314100         2.929172
 C         1.033509        -1.077629         1.572748
 C         1.146698        -0.322902         0.198209
 C         2.645168        -0.325195         0.130329
 O         3.434449        -0.795350        -0.916305
 H         2.306530         3.111676        -0.423791
 H         2.031269         1.821772        -1.576832
 H         0.738087         2.319517        -0.374469
 H         3.290410         1.493427         1.891886
 H         1.673496         1.508333         2.503511
 H         3.968247        -1.461876         2.750136
 H         1.101631        -2.264335         1.600259
 H         0.247463        -0.959315         2.265988
 H         0.523274        -0.426184        -0.706234
 H         2.923382        -1.643626        -1.118328
