19
Iteration:  4202charge 0 multiplicity 1
 C         1.792133         2.231349        -0.377634
 C         1.920541         0.932080         0.391406
 C         2.181419         0.843298         1.812815
 C         2.419995        -0.608028         1.724367
 O         2.990458        -1.077155         2.909469
 C         1.088740        -1.200887         1.461132
 C         1.172336        -0.404964         0.078488
 C         2.669311        -0.412310         0.159782
 O         3.551912        -0.748372        -0.775088
 H         2.680635         2.802114        -0.151716
 H         1.874170         1.999672        -1.429299
 H         0.892029         2.693660        -0.144758
 H         3.192567         1.372239         2.042940
 H         1.369657         1.247256         2.520129
 H         3.968288        -1.037102         2.834998
 H         1.192677        -2.310610         1.037221
 H         0.258611        -1.085721         2.150406
 H         0.543663        -0.544757        -0.920830
 H         3.185403        -1.469999        -1.331593
