19
Iteration:  3596charge 0 multiplicity 1
 C         1.800888         2.144961        -0.472076
 C         1.943125         0.928448         0.328873
 C         2.369823         0.931198         1.677018
 C         2.360077        -0.528833         1.765276
 O         3.130067        -1.154592         2.744196
 C         0.960917        -1.032495         1.609914
 C         0.977225        -0.397420         0.179250
 C         2.512418        -0.472997         0.120254
 O         3.661553        -0.901340        -0.558767
 H         2.704679         2.680360        -0.802691
 H         1.256363         1.887693        -1.406114
 H         1.044586         2.731703         0.087263
 H         3.352051         1.317710         1.874824
 H         1.705649         1.459772         2.338567
 H         3.978791        -1.446413         2.404534
 H         0.895609        -2.162465         1.613022
 H         0.258015        -0.619187         2.324558
 H         0.173197        -0.323356        -0.658990
 H         3.645487        -0.493529        -1.479117
