19
Iteration:   123charge 0 multiplicity 1
 C         1.808667         2.092903        -0.643851
 C         1.924810         1.006426         0.410709
 C         2.250738         1.009505         2.019385
 C         2.451574        -0.489314         1.780012
 O         3.316545        -1.176676         2.660622
 C         0.896345        -0.967272         1.619105
 C         1.096573        -0.389565         0.192834
 C         2.527466        -0.449627         0.209180
 O         3.439622        -1.059337        -0.751874
 H         2.222161         1.802633        -1.635140
 H         0.753388         2.325548        -0.899863
 H         2.230508         3.019600        -0.372691
 H         3.103365         1.542700         2.342016
 H         1.348536         1.231146         2.646373
 H         4.062781        -1.421776         2.100796
 H         0.871401        -2.025220         1.727029
 H         0.235075        -0.512056         2.326782
 H         0.537858        -0.678084        -0.814496
 H         3.834362        -0.255853        -1.247674
