19
Iteration:  2188
 C         1.934614         2.266730        -0.639743
 C         1.932640         0.966440         0.339321
 C         2.405751         1.094572         1.848278
 C         2.421414        -0.530133         1.816594
 O         3.271909        -1.452255         2.515521
 C         0.933305        -0.962454         1.714298
 C         0.971751        -0.482784         0.319327
 C         2.437984        -0.433797         0.221425
 O         3.412541        -0.847994        -0.671225
 H         2.797815         2.087617        -1.244481
 H         1.139418         2.210493        -1.376660
 H         1.858106         3.178983        -0.123315
 H         3.310730         1.690275         1.845815
 H         1.664835         1.682856         2.581487
 H         4.212403        -1.256181         2.227056
 H         0.686646        -2.006234         1.731559
 H         0.204242        -0.417904         2.386060
 H         0.124072        -0.520284        -0.431570
 H         3.370942        -1.858719        -0.782595
