19
Iteration:  3347charge 0 multiplicity 1
 C         1.918494         1.974225        -0.536357
 C         1.801755         0.869070         0.338251
 C         2.411831         1.050226         1.810786
 C         2.331516        -0.474303         1.785454
 O         3.291279        -1.326208         2.462399
 C         0.794359        -0.902734         1.657675
 C         0.943532        -0.404592         0.173995
 C         2.471470        -0.397176         0.231357
 O         3.670067        -0.753575        -0.422928
 H         2.615487         2.627681        -0.026524
 H         2.255750         1.706354        -1.581523
 H         0.922934         2.363634        -0.750918
 H         3.424253         1.350942         1.700143
 H         1.937527         1.554160         2.633016
 H         3.898199        -1.563733         1.753203
 H         0.642874        -2.024035         1.540386
 H        -0.018709        -0.575555         2.212433
 H         0.271328        -0.487263        -0.656463
 H         3.367742        -1.231654        -1.221694
