19
Iteration:  3506charge 0 multiplicity 1
 C         1.884576         2.004466        -0.700471
 C         1.856745         0.975172         0.424714
 C         2.300240         1.022626         1.890297
 C         2.423591        -0.597121         1.806436
 O         3.192261        -1.209091         2.798546
 C         0.989065        -1.137543         1.503621
 C         1.096388        -0.321567         0.224620
 C         2.601202        -0.337398         0.214478
 O         3.348123        -0.846289        -0.797276
 H         2.635155         2.821861        -0.380591
 H         2.118042         1.773408        -1.743491
 H         0.828463         2.404375        -0.742512
 H         3.318749         1.439883         1.936594
 H         1.814482         1.506729         2.707201
 H         3.988651        -0.693974         2.943443
 H         0.670239        -2.139080         1.372698
 H         0.277363        -0.722499         2.307613
 H         0.532317        -0.503510        -0.623846
 H         4.109985        -1.289920        -0.407250
