19
Iteration:  2153charge 0 multiplicity 1
 C         1.747830         2.101173        -0.564019
 C         1.985746         0.985429         0.435214
 C         2.515088         0.952931         1.859702
 C         2.460177        -0.625442         1.767533
 O         3.181036        -1.250884         2.722432
 C         0.911562        -0.954645         1.564053
 C         1.035041        -0.176651         0.321916
 C         2.580539        -0.497573         0.181965
 O         3.376196        -0.903351        -0.846045
 H         2.741128         2.633518        -0.827514
 H         1.283026         1.648482        -1.438075
 H         1.166262         2.948059        -0.256229
 H         3.547337         1.353479         1.930825
 H         1.838592         1.361629         2.654857
 H         4.118456        -1.054711         2.461033
 H         0.651977        -1.981047         1.280953
 H         0.299779        -0.622671         2.390605
 H         0.104042        -0.299804        -0.355708
 H         3.272394        -1.924743        -0.903598
