19
Iteration:   621charge 0 multiplicity 1
 C         1.734883         2.100824        -0.609353
 C         1.973830         0.943474         0.386988
 C         2.300487         0.993969         1.834503
 C         2.385953        -0.478237         1.954285
 O         3.264398        -1.142222         2.850975
 C         1.053710        -1.135218         1.525992
 C         1.087708        -0.334195         0.195112
 C         2.585681        -0.395841         0.141275
 O         3.285359        -0.956506        -0.886070
 H         1.550715         1.556762        -1.525248
 H         0.955163         2.755963        -0.368892
 H         2.657384         2.679970        -0.693300
 H         3.314503         1.405173         2.004538
 H         1.584222         1.536292         2.535091
 H         4.155725        -0.838515         3.066155
 H         1.465561        -2.221296         1.324747
 H         0.107452        -0.946648         2.144341
 H         0.441827        -0.550379        -0.654183
 H         4.264307        -1.118427        -0.661983
