19
Iteration:  4287
 C         1.851504         2.086311        -0.532969
 C         1.752345         0.900253         0.374713
 C         2.212020         0.952078         1.841908
 C         2.289646        -0.559754         1.793420
 O         3.347978        -1.246816         2.498784
 C         0.794500        -1.141120         1.512749
 C         1.002383        -0.415867         0.145790
 C         2.561214        -0.380875         0.262689
 O         3.797286        -0.554837        -0.457148
 H         2.809529         2.005299        -1.116346
 H         1.054922         2.088412        -1.431136
 H         2.001105         3.174576        -0.114666
 H         3.253226         1.326710         1.801424
 H         1.639674         1.514178         2.521301
 H         3.091372        -2.154182         2.761318
 H         0.757691        -2.267544         1.366926
 H        -0.110226        -0.822193         2.024159
 H         0.499400        -0.793667        -0.855862
 H         3.895881        -1.504557        -0.640371
