19
Iteration:  4792charge 0 multiplicity 1
 C         1.862023         2.078972        -0.633754
 C         1.881395         0.987648         0.422141
 C         2.252249         0.922912         1.983595
 C         2.396797        -0.601372         1.744639
 O         3.230405        -1.181020         2.727130
 C         0.998341        -1.142526         1.473885
 C         1.053460        -0.375578         0.158081
 C         2.589766        -0.349004         0.230245
 O         3.458011        -0.714310        -0.741353
 H         1.290913         2.979044        -0.306893
 H         2.883367         2.490150        -0.908783
 H         1.439475         1.604802        -1.548345
 H         3.282473         1.341362         2.303594
 H         1.615982         1.328696         2.742447
 H         2.966689        -2.140115         2.708091
 H         0.983097        -2.266489         1.288475
 H         0.207819        -0.823573         2.121313
 H         0.376299        -0.382537        -0.642060
 H         4.301016        -1.030953        -0.322431
