19
Iteration:  3616
 C         1.722263         2.161230        -0.566579
 C         1.939393         0.934814         0.309289
 C         2.308978         1.038606         1.807372
 C         2.382461        -0.592177         1.829293
 O         3.157698        -1.180959         2.927959
 C         0.885639        -1.045336         1.535429
 C         1.087979        -0.356988         0.188929
 C         2.674749        -0.484512         0.146029
 O         3.598929        -0.900597        -0.765565
 H         2.792596         2.587055        -0.817349
 H         1.225214         2.041327        -1.562268
 H         1.165525         2.909223         0.107064
 H         3.345859         1.367071         2.036264
 H         1.614814         1.374559         2.570907
 H         3.938451        -1.689705         2.592873
 H         0.798933        -2.101154         1.276798
 H         0.192584        -0.558834         2.291934
 H         0.341590        -0.617708        -0.609679
 H         3.236914        -0.859150        -1.716621
