19
Iteration:  1353
 C         1.834882         2.209564        -0.505519
 C         1.927495         0.922283         0.329180
 C         2.562329         0.986064         1.694555
 C         2.498725        -0.574301         1.750794
 O         3.267258        -1.257332         2.793167
 C         0.978048        -0.911154         1.696718
 C         0.978942        -0.369584         0.283898
 C         2.420174        -0.504509         0.175045
 O         3.256037        -0.928167        -0.854817
 H         2.583314         2.098339        -1.308523
 H         0.906089         2.590521        -0.929375
 H         2.072287         3.084496         0.102315
 H         3.636249         1.396318         1.591561
 H         2.040625         1.460142         2.537551
 H         4.057605        -0.732249         2.861701
 H         0.878831        -2.016941         1.714096
 H         0.429920        -0.609575         2.518469
 H         0.223352        -0.466856        -0.479469
 H         3.155069        -1.925657        -0.966322
