19
Iteration:  4235charge 0 multiplicity 1
 C         1.659657         2.112594        -0.608356
 C         1.885226         0.995847         0.455849
 C         2.209519         1.039053         1.957921
 C         2.320359        -0.561741         1.883394
 O         3.110852        -1.320976         2.817219
 C         0.958824        -1.157161         1.393900
 C         1.194204        -0.374427         0.112873
 C         2.667506        -0.326589         0.207546
 O         3.734444        -0.724402        -0.735950
 H         2.624668         2.390474        -1.053432
 H         1.055786         1.675323        -1.386142
 H         1.195521         2.993046        -0.227858
 H         3.293527         1.372668         2.066028
 H         1.510323         1.585641         2.654812
 H         3.753932        -1.831230         2.279340
 H         1.002848        -2.295643         1.066163
 H         0.066688        -1.092865         1.972500
 H         0.470910        -0.172121        -0.762488
 H         3.535884        -1.604111        -0.978795
