19
Iteration:  4860charge 0 multiplicity 1
 C         1.877038         2.150425        -0.491668
 C         1.892551         0.959829         0.460783
 C         2.358569         0.983897         1.906592
 C         2.342832        -0.589071         1.736722
 O         3.251290        -1.167848         2.580528
 C         0.902510        -1.134857         1.435251
 C         0.872488        -0.334220         0.162011
 C         2.513910        -0.415694         0.161346
 O         3.618397        -0.869300        -0.514093
 H         0.917165         2.611713        -0.869042
 H         2.330620         3.063191        -0.082010
 H         2.440502         1.888217        -1.395934
 H         3.420673         1.089528         2.072879
 H         1.832553         1.445984         2.800313
 H         4.162350        -1.265970         2.330419
 H         0.878338        -2.276891         1.332694
 H         0.192147        -0.866664         2.239341
 H         0.185144        -0.413577        -0.730659
 H         3.376850        -1.106776        -1.450016
