19
Iteration:  4609
 C         1.816886         2.070503        -0.594541
 C         1.903569         0.896487         0.366346
 C         2.274779         1.008820         1.899123
 C         2.361794        -0.582324         1.807157
 O         3.188739        -1.391733         2.698791
 C         0.929045        -1.009168         1.566462
 C         1.025624        -0.394561         0.219420
 C         2.561502        -0.358490         0.185254
 O         3.631505        -0.697671        -0.733409
 H         0.783341         2.283717        -1.065702
 H         2.127841         3.017023        -0.122370
 H         2.625153         1.970466        -1.329513
 H         3.301425         1.440857         2.040008
 H         1.626583         1.515837         2.664783
 H         4.119303        -1.075092         2.724473
 H         0.799755        -2.120155         1.487800
 H         0.230008        -0.533376         2.240153
 H         0.184973        -0.211084        -0.434142
 H         3.372664        -1.420525        -1.285107
