19
Iteration:  3952charge 0 multiplicity 1
 C         1.814707         2.004002        -0.528927
 C         1.865220         0.899058         0.367038
 C         2.261382         0.951667         1.858874
 C         2.379424        -0.498533         1.745630
 O         3.167836        -1.212802         2.729314
 C         0.936000        -1.132368         1.486857
 C         0.976718        -0.343031         0.154657
 C         2.598223        -0.364618         0.195762
 O         3.684748        -0.655235        -0.627036
 H         2.592865         2.798310        -0.164675
 H         2.246894         1.630912        -1.520297
 H         0.781976         2.571782        -0.657555
 H         3.242759         1.432385         2.025617
 H         1.508069         1.301958         2.522871
 H         3.658263        -1.936696         2.269886
 H         0.872903        -2.207570         1.363243
 H         0.138100        -0.829587         2.254722
 H         0.449436        -0.419589        -0.744186
 H         3.661243        -1.616662        -0.584494
