19
Iteration:  2427charge 0 multiplicity 1
 C         1.898055         2.046983        -0.606204
 C         1.871457         0.969564         0.417575
 C         2.453602         0.945314         1.872662
 C         2.356376        -0.521575         1.747350
 O         3.271457        -1.318776         2.582783
 C         0.890805        -1.013975         1.610948
 C         0.960127        -0.322731         0.172536
 C         2.455096        -0.402401         0.198428
 O         3.507876        -0.769425        -0.610227
 H         0.959623         2.627873        -0.430745
 H         2.787525         2.659411        -0.627084
 H         1.713408         1.676120        -1.572479
 H         3.553905         1.190082         2.005074
 H         1.783434         1.292906         2.671246
 H         4.081913        -0.769350         2.638564
 H         0.967078        -2.064581         1.629444
 H         0.150181        -0.678361         2.317376
 H         0.354622        -0.232052        -0.740716
 H         3.321966        -1.686558        -0.656062
