19
Iteration:   338
 C         1.714595         1.999896        -0.610431
 C         1.814890         0.900163         0.332929
 C         2.350195         1.033973         1.820405
 C         2.420798        -0.481567         1.830197
 O         3.234696        -1.151938         2.723007
 C         0.994890        -1.081930         1.595291
 C         1.049453        -0.429540         0.178659
 C         2.517281        -0.397753         0.245923
 O         3.564070        -0.856223        -0.711502
 H         0.944046         2.765411        -0.254432
 H         2.639607         2.619527        -0.800165
 H         1.390233         1.635265        -1.653214
 H         3.379232         1.598754         1.756857
 H         1.773102         1.611200         2.609218
 H         3.461132        -1.903374         2.147703
 H         1.038193        -2.165097         1.781737
 H         0.215908        -0.563270         2.293198
 H         0.369985        -0.409969        -0.732123
 H         4.432773        -0.561493        -0.290275
