19
Iteration:  4881
 C         1.761643         2.147002        -0.494089
 C         1.906329         0.967754         0.404128
 C         2.377310         1.001048         1.789947
 C         2.341948        -0.550238         1.800183
 O         3.172226        -1.369892         2.593191
 C         0.926961        -1.089099         1.520200
 C         1.042696        -0.254074         0.197151
 C         2.584225        -0.361459         0.154276
 O         3.606787        -0.847478        -0.532371
 H         0.703570         2.425859        -0.820279
 H         2.004634         3.103400         0.019160
 H         2.238914         2.057834        -1.481401
 H         3.484196         1.286729         1.842967
 H         1.710197         1.404307         2.543509
 H         4.085953        -0.986036         2.435940
 H         0.991743        -2.183021         1.209966
 H         0.050212        -1.033308         2.133145
 H         0.338791        -0.146635        -0.675366
 H         3.408061        -1.766952        -0.879584
