19
Iteration:   917charge 0 multiplicity 1
 C         1.986195         2.014684        -0.744982
 C         1.781087         0.955877         0.421914
 C         2.462431         1.028237         1.831926
 C         2.421544        -0.558413         1.847472
 O         3.432147        -1.292577         2.485177
 C         0.897883        -0.944692         1.806627
 C         0.864483        -0.355026         0.388732
 C         2.407965        -0.444136         0.206423
 O         3.386296        -0.833143        -0.729411
 H         1.368330         1.931941        -1.685323
 H         1.974348         3.074997        -0.404082
 H         3.003724         1.921067        -1.249177
 H         3.374635         1.416575         1.643301
 H         1.946563         1.486897         2.713757
 H         4.198226        -0.775922         2.838377
 H         0.692904        -2.054617         1.903699
 H         0.167056        -0.392747         2.339503
 H         0.075236        -0.336952        -0.287869
 H         3.013632        -1.604824        -1.245279
