19
Iteration:  3203
 C         1.798509         2.019002        -0.708044
 C         1.952073         0.985745         0.409544
 C         2.314185         0.909982         1.947031
 C         2.338310        -0.583375         1.865323
 O         3.309321        -1.222416         2.665195
 C         0.853689        -0.937605         1.492547
 C         1.038584        -0.339180         0.215256
 C         2.616830        -0.397474         0.283971
 O         3.513917        -0.744746        -0.713293
 H         2.733238         2.063995        -1.331283
 H         0.928263         1.898082        -1.400951
 H         1.595605         2.963430        -0.180072
 H         3.294383         1.200133         2.286667
 H         1.642189         1.413634         2.585410
 H         3.376345        -2.174300         2.399020
 H         0.811121        -2.092269         1.493720
 H        -0.020966        -0.644836         2.013365
 H         0.518513        -0.367397        -0.746337
 H         3.780336        -1.640980        -0.657344
