19
Iteration:  3146
 C         1.985509         2.150760        -0.610643
 C         1.801961         0.908469         0.380072
 C         2.275585         1.102404         1.863478
 C         2.381314        -0.505378         1.787129
 O         3.328562        -1.286847         2.455781
 C         0.908992        -1.089679         1.621205
 C         0.944469        -0.443854         0.159662
 C         2.410158        -0.438558         0.247504
 O         3.578066        -0.765068        -0.534569
 H         3.065831         2.311366        -0.965984
 H         1.382639         2.029334        -1.500264
 H         1.772388         3.022372         0.000179
 H         3.309368         1.480378         1.739624
 H         1.697669         1.554885         2.625712
 H         3.134485        -1.418240         3.393421
 H         1.054586        -2.244167         1.556120
 H         0.162695        -0.816963         2.308305
 H         0.470523        -0.536917        -0.784086
 H         3.718332        -1.739816        -0.741816
