19
Iteration:   160
 C         1.772924         2.026312        -0.620582
 C         1.841904         0.972703         0.394391
 C         2.352760         1.087056         1.813295
 C         2.447250        -0.506791         1.769676
 O         3.187002        -1.259795         2.655456
 C         1.074313        -1.081200         1.605745
 C         1.005363        -0.279790         0.223020
 C         2.522598        -0.406289         0.205098
 O         3.415316        -0.945611        -0.703024
 H         1.593315         1.490819        -1.559031
 H         0.994798         2.725712        -0.309580
 H         2.800121         2.542533        -0.650774
 H         3.415968         1.495872         1.911879
 H         1.808611         1.581869         2.643184
 H         4.047914        -0.910822         2.877241
 H         1.196182        -2.217912         1.348636
 H         0.262825        -1.017274         2.503256
 H         0.527258        -0.527937        -0.638728
 H         4.268415        -0.607496        -0.302119
