19
Iteration:  3305charge 0 multiplicity 1
 C         1.882171         2.075887        -0.644413
 C         2.025375         1.022074         0.393598
 C         2.253908         0.931609         1.918655
 C         2.405841        -0.579059         1.861155
 O         3.251503        -1.214803         2.791708
 C         0.936202        -1.079316         1.519533
 C         1.027611        -0.240746         0.278768
 C         2.603219        -0.327731         0.169908
 O         3.437287        -0.841315        -0.838453
 H         2.273638         3.006909        -0.291781
 H         2.274289         1.744931        -1.599827
 H         0.849159         2.297077        -0.972784
 H         3.094857         1.479040         2.294998
 H         1.345584         1.254359         2.406871
 H         3.227867        -2.135266         2.495456
 H         1.012942        -2.115004         1.323228
 H         0.139067        -0.817891         2.233276
 H         0.563822        -0.562515        -0.620475
 H         3.364823        -1.855367        -0.727842
