19
Iteration:   229charge 0 multiplicity 1
 C         1.817111         2.054315        -0.575685
 C         1.909239         0.957266         0.388993
 C         2.263274         1.026437         1.868093
 C         2.400403        -0.482920         1.805496
 O         3.324682        -1.165927         2.640727
 C         0.987805        -1.120367         1.618804
 C         1.030568        -0.431866         0.197378
 C         2.465164        -0.413010         0.108218
 O         3.536542        -0.869213        -0.695997
 H         0.920522         2.056774        -1.246811
 H         1.937240         3.023560        -0.052048
 H         2.661315         1.970305        -1.293544
 H         3.285056         1.498966         2.022101
 H         1.611446         1.595831         2.526860
 H         3.474545        -0.639768         3.431361
 H         0.876513        -2.239066         1.697085
 H         0.189644        -0.654372         2.429467
 H         0.321105        -0.366623        -0.704279
 H         3.238834        -1.745853        -1.110093
