19
Iteration:   124charge 0 multiplicity 1
 C         1.805485         2.093378        -0.644401
 C         1.927960         1.013163         0.401167
 C         2.249095         1.014910         2.020693
 C         2.459830        -0.485268         1.786049
 O         3.316465        -1.181895         2.660303
 C         0.892746        -0.979664         1.614435
 C         1.093122        -0.385483         0.192424
 C         2.524913        -0.448392         0.210874
 O         3.439166        -1.059739        -0.752327
 H         2.209072         1.813121        -1.634796
 H         0.754624         2.318737        -0.905391
 H         2.258840         3.032592        -0.409457
 H         3.128976         1.506130         2.361398
 H         1.344408         1.226304         2.647428
 H         4.074988        -1.416679         2.131546
 H         0.897689        -2.062421         1.736324
 H         0.207047        -0.474907         2.336621
 H         0.546777        -0.683543        -0.784835
 H         3.821534        -0.255743        -1.220388
