19
Iteration:  1645
 C         1.823237         2.031891        -0.681888
 C         2.059857         0.979755         0.398543
 C         2.577394         0.986278         1.963513
 C         2.443406        -0.549390         1.859952
 O         3.371471        -1.458155         2.434185
 C         0.867137        -0.798669         1.836954
 C         0.922983        -0.187327         0.323226
 C         2.429880        -0.424471         0.204001
 O         3.229798        -0.929370        -0.860828
 H         0.749286         2.427685        -0.599403
 H         2.670781         2.801979        -0.738016
 H         1.844167         1.583264        -1.733467
 H         3.633377         1.359479         2.079877
 H         2.080485         1.394267         2.899354
 H         4.174684        -0.925823         2.427769
 H         0.573490        -1.876988         1.830635
 H         0.382994        -0.160940         2.707742
 H         0.108188         0.069174        -0.481859
 H         3.442168        -1.919717        -0.672260
