19
Iteration:  3210
 C         1.788502         1.996699        -0.644590
 C         1.945683         0.940291         0.391659
 C         2.358919         0.964621         1.923926
 C         2.367228        -0.611530         1.828746
 O         3.215292        -1.175079         2.717068
 C         0.857673        -1.031483         1.538045
 C         1.106295        -0.332348         0.184246
 C         2.589976        -0.400946         0.245635
 O         3.503517        -0.737204        -0.752727
 H         2.782777         2.201280        -1.101360
 H         0.948194         1.980361        -1.318629
 H         1.657044         2.976811        -0.168579
 H         3.444301         1.268419         2.063307
 H         1.649808         1.467154         2.652569
 H         3.414684        -2.101646         2.425243
 H         0.753799        -2.114989         1.459395
 H         0.091824        -0.520045         2.175321
 H         0.574134        -0.190253        -0.725981
 H         3.783516        -1.648275        -0.744180
