19
Iteration:  4083
 C         1.760631         2.049576        -0.652283
 C         1.856667         0.878340         0.398443
 C         2.209982         0.998176         1.972653
 C         2.346821        -0.550238         1.798235
 O         3.181260        -1.352659         2.579349
 C         0.873513        -0.990571         1.544409
 C         1.100951        -0.499181         0.071092
 C         2.611389        -0.380506         0.252961
 O         3.769047        -0.549204        -0.536725
 H         2.664299         2.687148        -0.508511
 H         1.813909         1.570755        -1.617129
 H         0.788479         2.516631        -0.523194
 H         3.223875         1.421942         2.187045
 H         1.486188         1.541730         2.561282
 H         3.518010        -2.010432         1.937754
 H         0.719009        -2.038037         1.801051
 H         0.135693        -0.363262         2.055986
 H         0.238250        -0.486444        -0.656801
 H         3.868233        -1.451777        -0.783979
