19
Iteration:   607
 C         1.776836         2.054973        -0.649169
 C         1.869866         0.980777         0.386358
 C         2.263537         1.045196         1.908046
 C         2.453752        -0.563529         1.856134
 O         3.301047        -1.167287         2.866540
 C         1.053487        -1.125863         1.479202
 C         1.122388        -0.330027         0.212211
 C         2.592490        -0.352799         0.214572
 O         3.276959        -0.978298        -0.879900
 H         1.237834         1.728874        -1.526797
 H         1.275373         2.912564        -0.142588
 H         2.822835         2.373289        -1.026694
 H         3.234861         1.498702         1.967383
 H         1.480895         1.542128         2.693709
 H         3.813680        -0.316380         2.936847
 H         1.075323        -2.190215         1.160282
 H         0.292539        -1.093196         2.210963
 H         0.533959        -0.434017        -0.628740
 H         4.160753        -1.185319        -0.562534
