19
Iteration:    13charge 0 multiplicity 1
 C         1.765482         2.074531        -0.677242
 C         2.004673         0.993162         0.373282
 C         2.280618         1.036604         1.893394
 C         2.381658        -0.574644         1.804693
 O         3.345439        -1.244683         2.574113
 C         0.895287        -1.059540         1.707390
 C         1.152451        -0.414594         0.253696
 C         2.603289        -0.353787         0.211920
 O         3.423071        -0.820381        -0.771558
 H         1.853153         1.541805        -1.648428
 H         0.713544         2.371198        -0.561178
 H         2.426946         2.871321        -0.676133
 H         3.052161         1.688113         2.081694
 H         1.346196         1.294839         2.460892
 H         2.956902        -1.219512         3.505514
 H         0.680290        -2.089088         1.634871
 H         0.291944        -0.432622         2.430579
 H         0.515198        -0.683626        -0.666120
 H         3.650434        -1.700787        -0.461757
