19
Iteration:   679charge 0 multiplicity 1
 C         1.692521         2.073312        -0.621446
 C         1.893860         0.912809         0.364418
 C         2.395317         1.112274         1.781729
 C         2.471346        -0.572516         1.800673
 O         3.295245        -1.325629         2.708207
 C         0.885355        -0.930795         1.623646
 C         1.023185        -0.410741         0.248361
 C         2.521400        -0.494841         0.182488
 O         3.510839        -0.893597        -0.691351
 H         2.505259         2.149856        -1.383722
 H         0.667615         2.129561        -1.082903
 H         1.917787         2.900143        -0.017736
 H         3.520912         1.351195         1.713321
 H         1.882296         1.705850         2.485050
 H         4.075709        -0.776545         2.903041
 H         0.698987        -1.978308         1.957967
 H         0.052807        -0.393143         2.322576
 H         0.258527        -0.563222        -0.583844
 H         3.699335        -0.290942        -1.384019
