19
Iteration:     1charge 0 multiplicity 1
 C         1.785833         2.034287        -0.626559
 C         1.889173         0.921892         0.372893
 C         2.286162         1.022833         1.849319
 C         2.424190        -0.526244         1.807770
 O         3.345772        -1.214047         2.581027
 C         0.963730        -1.030177         1.614993
 C         1.035457        -0.382865         0.233801
 C         2.547513        -0.412779         0.217998
 O         3.491902        -0.804542        -0.690932
 H         1.637401         1.639845        -1.637160
 H         0.945379         2.700663        -0.400217
 H         2.698979         2.639742        -0.640025
 H         3.263731         1.501495         1.960321
 H         1.571182         1.450119         2.564102
 H         3.120959        -1.090169         3.510243
 H         0.928308        -2.121849         1.551658
 H         0.211180        -0.670662         2.326924
 H         0.352358        -0.489096        -0.599401
 H         3.463525        -1.765010        -0.771172
