19
Iteration:   860
 C         1.757605         2.046636        -0.663315
 C         2.002540         0.981724         0.387637
 C         2.440571         1.006941         1.817699
 C         2.483988        -0.608117         1.817986
 O         3.297044        -1.279943         2.738113
 C         0.953734        -0.912862         1.772822
 C         1.032115        -0.272777         0.289959
 C         2.468245        -0.403444         0.156261
 O         3.324675        -0.934312        -0.892972
 H         0.686586         2.334025        -0.712323
 H         2.240910         2.998333        -0.390213
 H         2.195904         1.803441        -1.718535
 H         3.379062         1.440943         2.077717
 H         1.679961         1.501501         2.499301
 H         4.152206        -1.087209         2.316568
 H         0.647615        -2.019497         1.768889
 H         0.470602        -0.193858         2.489547
 H         0.241097        -0.527483        -0.489982
 H         3.463467        -1.865366        -0.558988
