19
Iteration:  4511charge 0 multiplicity 1
 C         1.915090         2.197704        -0.405276
 C         1.862071         0.965126         0.414171
 C         2.213707         0.967641         1.808150
 C         2.332044        -0.514050         1.806429
 O         3.251557        -1.188399         2.663070
 C         0.917122        -1.172173         1.501089
 C         1.027950        -0.496094         0.119643
 C         2.534446        -0.387273         0.191373
 O         3.599783        -0.797595        -0.658740
 H         1.517015         3.176942         0.099657
 H         3.013753         2.417056        -0.604795
 H         1.504459         2.050470        -1.437484
 H         3.152294         1.450703         1.943414
 H         1.507878         1.389782         2.488524
 H         4.207883        -1.095936         2.446660
 H         1.010063        -2.276642         1.433596
 H         0.033515        -0.856574         2.042722
 H         0.268542        -0.694234        -0.732612
 H         3.305371        -1.496637        -1.214957
