19
Iteration:   943charge 0 multiplicity 1
 C         1.916594         1.903959        -0.630945
 C         2.030627         0.901244         0.411214
 C         2.390760         0.983822         1.843471
 C         2.457773        -0.560818         1.764819
 O         3.358581        -1.256798         2.550760
 C         0.960873        -0.853193         1.793166
 C         0.919719        -0.242229         0.375664
 C         2.462291        -0.455654         0.181853
 O         3.269335        -0.825902        -0.811890
 H         1.552182         1.454208        -1.619557
 H         1.257898         2.790517        -0.384697
 H         2.835182         2.364662        -1.017995
 H         3.366821         1.558153         1.830951
 H         1.664518         1.302225         2.525440
 H         4.135767        -0.803849         2.968457
 H         0.822991        -1.905704         1.763660
 H         0.226447        -0.464251         2.554623
 H         0.151623        -0.290368        -0.499644
 H         3.047541        -1.790857        -1.061266
