19
Iteration:  4343
 C         1.880988         2.098657        -0.568926
 C         1.864740         0.963749         0.378549
 C         1.982955         0.952500         1.949730
 C         2.364848        -0.638828         1.837467
 O         3.204327        -1.288558         2.695655
 C         0.996479        -1.194383         1.494263
 C         1.226648        -0.336051         0.129328
 C         2.756299        -0.329930         0.326158
 O         3.504107        -0.680860        -0.861139
 H         2.915532         2.314171        -1.034421
 H         1.153442         2.217271        -1.503652
 H         1.630969         3.068245        -0.001916
 H         2.878614         1.474094         2.361444
 H         1.131164         1.240882         2.457385
 H         3.052586        -0.963566         3.609830
 H         0.991595        -2.338296         1.383264
 H         0.191598        -0.785522         2.006343
 H         0.604235        -0.449442        -0.770629
 H         4.015787        -1.437808        -0.669987
