19
Iteration:  2569charge 0 multiplicity 1
 C         1.865995         2.083389        -0.673582
 C         1.914353         0.981639         0.393581
 C         2.206461         1.069971         1.912193
 C         2.430318        -0.515806         1.816970
 O         3.302215        -1.460469         2.597801
 C         0.857031        -1.037071         1.605084
 C         1.069231        -0.344878         0.155026
 C         2.557811        -0.373068         0.229501
 O         3.529181        -0.760052        -0.593406
 H         2.754636         2.783969        -0.737399
 H         1.625211         1.725119        -1.702235
 H         1.014840         2.686290        -0.356612
 H         3.192655         1.552267         2.195614
 H         1.358431         1.252696         2.594131
 H         4.163605        -1.134696         2.280611
 H         0.613216        -2.089142         1.413411
 H        -0.103835        -0.700068         2.245893
 H         0.441433        -0.232498        -0.763396
 H         3.600185        -1.670385        -0.744402
