19
Iteration:   665charge 0 multiplicity 1
 C         1.718450         2.095612        -0.547170
 C         1.828253         0.882833         0.307806
 C         2.410171         1.010504         1.774917
 C         2.452425        -0.501712         1.843147
 O         3.258350        -1.318106         2.786388
 C         0.962450        -0.885128         1.691090
 C         1.032224        -0.431920         0.196934
 C         2.569086        -0.446882         0.165233
 O         3.502874        -0.965852        -0.790718
 H         2.179678         2.027192        -1.536475
 H         0.733343         2.213090        -0.877476
 H         1.939582         3.074318        -0.130404
 H         3.260074         1.741571         1.683255
 H         1.727308         1.449760         2.625834
 H         3.975817        -0.709907         2.996835
 H         0.772032        -2.035329         1.484784
 H         0.305977        -0.285136         2.390310
 H         0.299359        -0.513590        -0.730936
 H         3.724784        -0.102837        -1.260406
