19
Iteration:   463
 C         1.722114         2.078706        -0.614114
 C         1.879041         0.942602         0.377660
 C         2.223233         0.988640         1.870947
 C         2.370244        -0.521357         1.882423
 O         3.205199        -1.134097         2.750610
 C         1.017874        -1.095647         1.539060
 C         1.129766        -0.491598         0.208488
 C         2.609649        -0.350841         0.153720
 O         3.506092        -0.892086        -0.753074
 H         1.474705         3.029734        -0.218113
 H         2.630271         2.197969        -1.191581
 H         0.949783         1.938642        -1.347106
 H         3.157759         1.404341         2.092823
 H         1.403638         1.371813         2.550443
 H         4.108281        -1.272118         2.402195
 H         1.045491        -2.163347         1.705694
 H         0.283209        -0.576538         2.236203
 H         0.520090        -0.694138        -0.757668
 H         4.389225        -0.409880        -0.693046
