19
Iteration:  3412
 C         1.764344         2.094118        -0.595028
 C         1.979599         1.061693         0.399618
 C         2.315689         1.104837         1.869183
 C         2.360628        -0.498142         1.836501
 O         3.140077        -1.279807         2.690103
 C         0.978079        -1.104639         1.492630
 C         1.132717        -0.314601         0.225079
 C         2.598358        -0.377798         0.227251
 O         3.449755        -1.049950        -0.666210
 H         2.635863         2.312973        -1.169178
 H         1.107452         1.631346        -1.379835
 H         1.239771         2.981218        -0.231063
 H         3.283694         1.537341         2.118645
 H         1.552853         1.582248         2.537242
 H         4.085567        -1.055250         2.599469
 H         1.227645        -2.169302         1.094105
 H         0.167628        -1.228110         2.169677
 H         0.548248        -0.581550        -0.626929
 H         3.926669        -0.310420        -1.192179
