19
Iteration:  2644
 C         1.848519         2.219172        -0.522031
 C         1.892116         0.913489         0.378877
 C         2.167287         0.967961         1.838655
 C         2.365036        -0.601037         1.757128
 O         3.243391        -1.167246         2.648633
 C         0.910522        -1.031014         1.588482
 C         1.073479        -0.446338         0.191549
 C         2.647125        -0.370918         0.201133
 O         3.616688        -0.908109        -0.641362
 H         2.861451         2.428369        -1.103425
 H         1.013233         2.424321        -1.272500
 H         1.748577         3.017113         0.252186
 H         3.048165         1.614728         1.967552
 H         1.405841         1.352872         2.508637
 H         3.410205        -2.090931         2.362348
 H         0.997442        -2.156246         1.573377
 H         0.123555        -0.744824         2.367920
 H         0.373815        -0.437072        -0.661260
 H         3.188412        -1.002572        -1.555532
