19
Iteration:  4474charge 0 multiplicity 1
 C         1.848964         2.114959        -0.623787
 C         1.927160         1.062599         0.431032
 C         2.114937         0.966461         1.947810
 C         2.428702        -0.559481         1.758305
 O         3.314106        -1.344524         2.526038
 C         0.950110        -1.150489         1.384390
 C         1.018005        -0.302021         0.186046
 C         2.509799        -0.264774         0.222768
 O         3.572232        -0.845749        -0.373748
 H         1.695105         3.205821        -0.433570
 H         2.776200         1.851508        -1.253566
 H         0.976890         1.754343        -1.208553
 H         3.058282         1.532824         2.362144
 H         1.166991         1.289452         2.479034
 H         4.172808        -1.189128         2.042180
 H         1.254381        -2.270567         1.300967
 H         0.225975        -1.081238         2.217108
 H         0.376773        -0.314882        -0.623373
 H         3.318433        -1.121406        -1.228932
