19
Iteration:   554charge 0 multiplicity 1
 C         1.835313         2.112345        -0.555848
 C         1.790140         0.865664         0.324143
 C         2.246141         1.050241         1.756274
 C         2.499245        -0.452054         1.824550
 O         3.374949        -1.250412         2.606721
 C         0.841147        -1.081491         1.602032
 C         0.996707        -0.424519         0.243991
 C         2.515865        -0.449042         0.249781
 O         3.527547        -0.903928        -0.643628
 H         0.909867         2.148031        -1.013828
 H         2.188150         2.923928        -0.058039
 H         2.532617         1.802927        -1.350937
 H         3.139479         1.620782         1.749660
 H         1.470574         1.491706         2.412743
 H         3.964539        -0.563940         3.018619
 H         0.869267        -2.261594         1.695399
 H         0.067580        -0.494818         2.167327
 H         0.520684        -0.518936        -0.659601
 H         3.973899        -0.129043        -0.953406
