19
Iteration:  1017charge 0 multiplicity 1
 C         1.729369         2.164484        -0.432967
 C         1.985459         0.904212         0.350100
 C         2.568309         0.998603         1.761442
 C         2.456047        -0.456210         1.838849
 O         3.291719        -1.230119         2.701638
 C         0.945547        -0.819955         1.699281
 C         0.989530        -0.231717         0.320286
 C         2.493860        -0.595349         0.105409
 O         3.348552        -1.135887        -0.896734
 H         2.104453         2.188362        -1.512080
 H         0.647365         2.195173        -0.726518
 H         1.990963         3.130292         0.001580
 H         3.511610         1.452257         1.723592
 H         1.801635         1.439232         2.485946
 H         4.140574        -0.826142         2.805701
 H         0.826211        -1.891493         1.807258
 H         0.400218        -0.312496         2.490797
 H         0.193104        -0.293473        -0.517204
 H         2.897388        -1.789109        -1.393309
