19
Iteration:  1438
 C         1.850499         2.040285        -0.659766
 C         1.901520         1.042272         0.456793
 C         2.534838         1.098129         1.817580
 C         2.495343        -0.478631         1.748544
 O         3.303850        -1.386941         2.518981
 C         0.959306        -0.934141         1.731454
 C         0.895342        -0.215138         0.448625
 C         2.437857        -0.453163         0.204919
 O         3.352438        -0.994101        -0.779416
 H         2.349683         3.036924        -0.455780
 H         2.395060         1.509845        -1.484478
 H         0.790571         2.379376        -0.863567
 H         3.493337         1.477557         1.978503
 H         1.835761         1.423706         2.693690
 H         4.263389        -1.276930         2.343726
 H         1.069084        -2.067328         1.567406
 H         0.236037        -0.606546         2.683489
 H         0.133100        -0.307155        -0.280479
 H         2.806410        -1.653372        -1.239697
