19
Iteration:  1024
 C         1.709167         2.204073        -0.533737
 C         1.970353         0.911241         0.367959
 C         2.545600         0.960984         1.767679
 C         2.434403        -0.549396         1.822884
 O         3.309262        -1.207762         2.632474
 C         0.929726        -0.770818         1.756421
 C         1.001850        -0.268280         0.307448
 C         2.563778        -0.557342         0.132533
 O         3.339624        -1.137809        -0.861473
 H         2.217849         2.107040        -1.446741
 H         0.654277         2.261072        -0.697533
 H         2.026463         2.961537         0.205951
 H         3.615211         1.445091         2.056236
 H         1.935666         1.477244         2.613130
 H         4.110132        -0.721183         2.902680
 H         0.705111        -1.918073         1.722625
 H         0.280497        -0.182862         2.470181
 H         0.157006        -0.350097        -0.353730
 H         2.832380        -1.711133        -1.516083
