19
Iteration:  1869
 C         2.004845         1.983172        -0.647633
 C         1.977585         0.985692         0.465617
 C         2.507319         1.047662         1.871544
 C         2.444788        -0.571454         1.749239
 O         3.244748        -1.329918         2.538725
 C         1.012956        -1.008614         1.695196
 C         0.935318        -0.238038         0.386280
 C         2.382990        -0.377129         0.195772
 O         3.244312        -0.851369        -0.746375
 H         2.635543         1.655903        -1.531862
 H         0.962437         2.199562        -1.051550
 H         2.268611         3.045405        -0.316300
 H         3.526569         1.246973         1.929081
 H         1.896409         1.644161         2.575925
 H         4.210090        -1.103942         2.389321
 H         0.867578        -2.074765         1.421338
 H         0.474105        -0.816564         2.632803
 H         0.155528        -0.120327        -0.378492
 H         2.752896        -1.614592        -1.182430
