19
Iteration:  3205charge 0 multiplicity 1
 C         1.795624         2.006011        -0.694685
 C         1.948368         0.981314         0.399780
 C         2.331139         0.920385         1.941284
 C         2.346993        -0.597260         1.859129
 O         3.282397        -1.208149         2.677805
 C         0.860222        -0.963758         1.497369
 C         1.052486        -0.341704         0.215522
 C         2.616346        -0.399083         0.277522
 O         3.508279        -0.740668        -0.725350
 H         2.735476         2.099066        -1.231404
 H         0.913316         1.957363        -1.382113
 H         1.603295         2.972567        -0.171287
 H         3.329440         1.197747         2.242827
 H         1.634380         1.454566         2.606536
 H         3.387191        -2.127844         2.409311
 H         0.810600        -2.073768         1.496527
 H        -0.060471        -0.576847         2.073844
 H         0.546754        -0.286392        -0.782849
 H         3.811229        -1.678170        -0.692292
