19
Iteration:  4003charge 0 multiplicity 1
 C         1.844881         2.152410        -0.466683
 C         1.852697         0.952698         0.379992
 C         2.045588         0.936300         1.899668
 C         2.442884        -0.591995         1.775410
 O         3.198239        -1.120834         2.826700
 C         1.068667        -1.182143         1.356016
 C         1.238258        -0.381469         0.112305
 C         2.737693        -0.322669         0.225403
 O         3.476422        -0.855915        -0.775158
 H         2.829389         2.498067        -0.381033
 H         1.470092         2.021700        -1.471260
 H         1.382650         2.884019         0.050188
 H         2.931548         1.649140         1.976127
 H         1.153208         1.198912         2.532552
 H         2.695968        -1.140418         3.666676
 H         1.078728        -2.306608         1.030059
 H         0.239182        -0.960599         1.924775
 H         0.582539        -0.448037        -0.757093
 H         2.859004        -1.504817        -1.026963
