19
Iteration:  2907
 C         1.813732         2.187809        -0.478120
 C         1.867052         0.875629         0.464794
 C         2.324255         1.055463         1.900103
 C         2.445278        -0.506069         1.798370
 O         3.177387        -1.191263         2.754134
 C         0.925800        -1.064750         1.513800
 C         1.168122        -0.399882         0.099805
 C         2.657376        -0.463010         0.194281
 O         3.435596        -0.950488        -0.866928
 H         2.800672         2.338735        -0.952272
 H         1.044360         2.085412        -1.216041
 H         1.600452         3.068312         0.069607
 H         3.265003         1.679097         1.961521
 H         1.507862         1.407201         2.580071
 H         2.537862        -1.685282         3.263037
 H         0.964233        -2.212965         1.385052
 H         0.154449        -0.659165         2.152323
 H         0.373312        -0.417965        -0.696177
 H         4.299344        -0.547350        -0.907887
