19
Iteration:  3273charge 0 multiplicity 1
 C         1.879903         2.115560        -0.455941
 C         1.999504         0.885238         0.401384
 C         2.311770         0.899787         1.906537
 C         2.379208        -0.527953         1.872628
 O         3.166821        -1.046939         2.928097
 C         1.010432        -1.081731         1.459699
 C         1.157666        -0.422610         0.144505
 C         2.653570        -0.378790         0.108341
 O         3.363538        -0.829588        -1.015672
 H         2.697934         2.759503        -0.150597
 H         2.072768         1.989556        -1.534239
 H         0.877469         2.528975        -0.209921
 H         3.252376         1.398869         2.122731
 H         1.519623         1.309327         2.566181
 H         2.601810        -1.692348         3.428610
 H         1.016915        -2.130271         1.490791
 H         0.098234        -0.763360         2.102737
 H         0.589783        -0.609653        -0.740056
 H         2.862877        -1.612703        -1.171442
