19
Iteration:  2850
 C         1.866183         2.069218        -0.424197
 C         1.908538         0.947786         0.457633
 C         2.303226         0.926739         1.900400
 C         2.351533        -0.586396         1.810259
 O         3.184162        -1.077215         2.812044
 C         0.934723        -1.054457         1.464729
 C         1.129214        -0.309673         0.142491
 C         2.672652        -0.337477         0.108522
 O         3.385407        -0.975583        -0.851604
 H         2.722578         2.730863        -0.441516
 H         1.713562         1.698027        -1.403057
 H         1.011516         2.615979        -0.140583
 H         3.326143         1.329150         2.096542
 H         1.586715         1.477013         2.535132
 H         3.649633        -1.855670         2.411784
 H         0.731836        -2.182781         1.394143
 H         0.135796        -0.740240         2.109106
 H         0.466536        -0.494354        -0.650203
 H         4.315936        -0.582990        -1.039012
