19
Iteration:  1036charge 0 multiplicity 1
 C         1.728836         2.154664        -0.566366
 C         1.994791         0.967867         0.316141
 C         2.484007         0.955981         1.823408
 C         2.466506        -0.590917         1.742374
 O         3.359151        -1.256375         2.596344
 C         0.915990        -0.802469         1.775062
 C         1.059704        -0.330935         0.343086
 C         2.498183        -0.450070         0.176910
 O         3.313755        -1.120175        -0.780388
 H         2.328801         2.270324        -1.457913
 H         0.723551         2.423401        -0.860751
 H         2.095742         3.081903        -0.080294
 H         3.645435         1.187401         1.725430
 H         1.832035         1.488296         2.633081
 H         3.881016        -0.505017         2.862802
 H         0.445587        -1.862801         1.881669
 H         0.342086        -0.129173         2.470919
 H         0.284025        -0.303559        -0.476585
 H         2.656742        -1.476490        -1.329268
