19
Iteration:    34
 C         1.721622         2.001552        -0.674094
 C         1.971865         0.939039         0.388622
 C         2.215021         1.043656         1.937478
 C         2.409016        -0.453120         1.895016
 O         3.376212        -1.292101         2.613907
 C         1.014101        -0.927925         1.563914
 C         1.094781        -0.333067         0.231837
 C         2.588848        -0.438711         0.237549
 O         3.401669        -0.891028        -0.808820
 H         2.167894         1.834758        -1.672200
 H         0.660790         2.219780        -0.893132
 H         2.134754         2.960744        -0.364966
 H         3.164983         1.482265         2.169964
 H         1.407893         1.449243         2.563136
 H         2.913003        -1.557619         3.431309
 H         1.057551        -2.017174         1.579863
 H         0.215390        -0.584649         2.200286
 H         0.277259        -0.266378        -0.526443
 H         4.151231        -1.550679        -0.585216
