19
Iteration:  3684charge 0 multiplicity 1
 C         1.940265         2.098744        -0.607901
 C         1.895437         0.946682         0.336586
 C         2.277470         0.967767         1.886567
 C         2.368819        -0.586163         1.773882
 O         3.369020        -1.153165         2.710768
 C         0.914163        -1.099904         1.568314
 C         0.962217        -0.374720         0.139134
 C         2.467080        -0.411079         0.155953
 O         3.539593        -0.772850        -0.677920
 H         2.679126         2.853599        -0.206107
 H         2.251831         1.922179        -1.694105
 H         0.901583         2.567957        -0.568607
 H         3.246196         1.322588         2.200494
 H         1.547539         1.368191         2.561668
 H         2.834988        -1.611154         3.376591
 H         0.849638        -2.182199         1.303099
 H         0.218145        -0.734994         2.288420
 H         0.190037        -0.456761        -0.667030
 H         3.618230        -1.703528        -0.401234
