19
Iteration:  3380charge 0 multiplicity 1
 C         1.827418         2.076474        -0.660974
 C         1.887054         1.005041         0.343169
 C         2.295557         1.006330         1.863315
 C         2.408207        -0.545448         1.721846
 O         3.279415        -1.411682         2.498073
 C         0.874897        -0.907214         1.680658
 C         0.954184        -0.363322         0.211084
 C         2.478074        -0.359972         0.147188
 O         3.648773        -0.900703        -0.369603
 H         2.768671         2.603660        -0.844566
 H         1.580067         1.499461        -1.604263
 H         1.140127         2.918584        -0.468016
 H         3.192527         1.534562         2.120225
 H         1.501750         1.256672         2.562853
 H         4.199420        -1.173491         2.204878
 H         0.700173        -2.021739         1.507027
 H         0.203109        -0.410360         2.351071
 H         0.216032        -0.534675        -0.543099
 H         3.717058        -0.609479        -1.251256
