19
Iteration:  2165
 C         1.820178         2.049271        -0.526421
 C         1.971771         0.905717         0.385249
 C         2.401011         0.953686         1.857142
 C         2.455394        -0.521776         1.740601
 O         3.183224        -1.302324         2.636472
 C         1.006312        -0.914267         1.652131
 C         0.961542        -0.190145         0.332137
 C         2.517231        -0.397132         0.158418
 O         3.417252        -0.908537        -0.802207
 H         2.800330         2.244736        -1.020536
 H         1.131157         1.832835        -1.348577
 H         1.406977         2.830061         0.043130
 H         3.394049         1.397357         1.851715
 H         1.757006         1.486135         2.645033
 H         4.086451        -1.459097         2.402033
 H         0.886568        -1.978410         1.501066
 H         0.327201        -0.565928         2.449371
 H         0.309194        -0.150796        -0.614556
 H         3.459556        -1.869023        -0.694864
