19
Iteration:  2095charge 0 multiplicity 1
 C         1.911335         2.146085        -0.477920
 C         1.923001         0.946272         0.373292
 C         2.387318         0.986071         1.863148
 C         2.508361        -0.552763         1.805650
 O         3.224065        -1.290983         2.698307
 C         0.996639        -0.915359         1.743851
 C         0.981351        -0.316677         0.246700
 C         2.549417        -0.482412         0.103386
 O         3.290387        -0.941450        -0.974827
 H         2.263174         3.080888         0.093504
 H         2.820543         2.164847        -1.176017
 H         0.994653         2.349218        -1.163630
 H         3.299432         1.654346         1.740035
 H         1.805668         1.382009         2.652817
 H         3.532891        -0.836066         3.476169
 H         0.895936        -2.027337         1.769620
 H         0.478683        -0.491271         2.565293
 H         0.206859        -0.451137        -0.474792
 H         3.148720        -1.831799        -1.211921
