19
Iteration:  3570charge 0 multiplicity 1
 C         1.778090         2.104890        -0.630418
 C         1.755330         0.960626         0.340792
 C         2.361069         1.037186         1.878505
 C         2.394126        -0.461146         1.823448
 O         3.262571        -1.337740         2.514442
 C         0.889699        -0.998912         1.591226
 C         1.006025        -0.404530         0.137950
 C         2.539084        -0.370986         0.222698
 O         3.604751        -1.005825        -0.440516
 H         2.846358         2.621245        -0.625446
 H         1.574015         1.920034        -1.718524
 H         0.975039         2.772136        -0.195872
 H         3.325064         1.571864         1.688918
 H         1.787594         1.579660         2.676866
 H         4.180566        -1.070491         2.367932
 H         0.841081        -2.070711         1.580489
 H         0.068646        -0.421151         2.190525
 H         0.534695        -0.527659        -0.778348
 H         4.075454        -0.283419        -0.976005
