19
Iteration:  4306charge 0 multiplicity 1
 C         1.957990         2.062669        -0.565153
 C         1.799854         0.906067         0.425298
 C         2.243704         0.952955         1.864829
 C         2.291547        -0.587980         1.706374
 O         3.290373        -1.156904         2.571262
 C         0.989503        -1.215398         1.411762
 C         1.001823        -0.446914         0.085156
 C         2.485989        -0.388506         0.210386
 O         3.613922        -0.563301        -0.465969
 H         2.900522         2.112306        -1.065331
 H         1.093834         2.204383        -1.242467
 H         1.951834         2.897684         0.193804
 H         3.256711         1.343044         1.919853
 H         1.611171         1.335035         2.748248
 H         2.824790        -1.667743         3.272491
 H         1.084721        -2.249154         1.335880
 H         0.197497        -1.033461         2.253403
 H         0.181948        -0.357641        -0.641891
 H         3.958709        -1.425987        -0.373698
