19
Iteration:  3300
 C         1.861481         2.087587        -0.605348
 C         2.039084         1.013924         0.456339
 C         2.229343         0.958791         1.915446
 C         2.398843        -0.576966         1.834004
 O         3.252263        -1.182284         2.824041
 C         0.959091        -1.067888         1.476417
 C         1.083481        -0.241019         0.259133
 C         2.621875        -0.414280         0.197145
 O         3.397721        -0.847106        -0.896872
 H         2.424232         3.025833        -0.318165
 H         2.284296         1.717734        -1.579819
 H         0.808248         2.153437        -0.919011
 H         3.102834         1.567066         2.267362
 H         1.295348         1.383620         2.376757
 H         3.104802        -2.155701         2.671493
 H         0.986839        -2.228284         1.305314
 H         0.169700        -0.853177         2.215085
 H         0.549411        -0.456751        -0.707904
 H         3.334798        -1.774513        -0.784092
