19
Iteration:  1602
 C         1.864708         2.313165        -0.501778
 C         1.927846         0.999457         0.358816
 C         2.608189         1.009939         1.777103
 C         2.534441        -0.514305         1.696420
 O         3.276176        -1.353136         2.590586
 C         0.994873        -0.934300         1.797253
 C         0.901984        -0.246271         0.387158
 C         2.415670        -0.475276         0.112480
 O         3.248751        -1.170288        -0.754885
 H         0.818487         2.737306        -0.705020
 H         2.317756         3.167779         0.132264
 H         2.244251         2.477904        -1.559113
 H         3.583418         1.473002         1.534239
 H         1.997801         1.717734         2.476903
 H         4.234864        -1.314981         2.343217
 H         1.117098        -2.020483         1.752844
 H         0.387414        -0.616841         2.599573
 H         0.069076        -0.323226        -0.435071
 H         2.625859        -1.751153        -1.284799
