19
Iteration:  2060
 C         1.983694         2.113340        -0.586116
 C         1.959502         0.940824         0.405108
 C         2.492858         0.984638         1.869291
 C         2.372732        -0.590288         1.793386
 O         3.335713        -1.253490         2.546756
 C         0.861091        -1.023649         1.685067
 C         0.910988        -0.206972         0.270763
 C         2.445107        -0.464288         0.272501
 O         3.308958        -0.862311        -0.800632
 H         1.266353         2.893876        -0.161995
 H         3.119331         2.198286        -0.827236
 H         1.457226         1.742501        -1.625486
 H         3.585080         1.265818         1.772600
 H         1.997579         1.367795         2.711407
 H         4.121166        -0.710574         2.637390
 H         0.662887        -2.062743         1.440406
 H         0.274112        -0.800147         2.618910
 H         0.161695        -0.295859        -0.538442
 H         3.492108        -1.770057        -0.734282
