19
Iteration:  2986
 C         1.956800         2.067467        -0.568427
 C         1.754789         1.007167         0.460363
 C         2.289705         1.032296         1.863987
 C         2.375944        -0.516112         1.723443
 O         3.299976        -1.314857         2.415372
 C         0.924010        -1.065086         1.538619
 C         1.047701        -0.447346         0.213900
 C         2.500621        -0.340802         0.204145
 O         3.457428        -0.844127        -0.529069
 H         2.868776         2.641376        -0.468422
 H         2.056762         1.710374        -1.614639
 H         1.319504         2.961631        -0.427096
 H         3.330398         1.411356         1.773514
 H         1.747950         1.459127         2.808283
 H         3.670042        -0.798956         3.126864
 H         0.742583        -2.134460         1.543527
 H         0.090393        -0.578105         2.154839
 H         0.502540        -0.700329        -0.637529
 H         4.121158        -1.266778         0.073502
