19
Iteration:  3434charge 0 multiplicity 1
 C         1.778521         2.171551        -0.553636
 C         1.991070         0.966104         0.327198
 C         2.296340         0.955542         1.872543
 C         2.407867        -0.546678         1.860739
 O         3.137774        -1.148305         2.916230
 C         1.025641        -1.108956         1.481531
 C         1.171832        -0.405384         0.130779
 C         2.640999        -0.429035         0.172087
 O         3.320225        -0.959238        -0.866080
 H         2.653567         2.527214        -1.034592
 H         1.089664         2.002332        -1.412088
 H         1.308711         2.905773         0.115707
 H         3.282267         1.381703         2.104817
 H         1.588086         1.409545         2.622030
 H         3.985623        -0.669656         2.988763
 H         0.838678        -2.267197         1.480618
 H         0.242852        -0.658942         2.056960
 H         0.482616        -0.421778        -0.724196
 H         4.217037        -0.718288        -0.740696
