19
Iteration:  4672charge 0 multiplicity 1
 C         1.943995         2.173830        -0.618275
 C         1.917800         0.976147         0.434871
 C         2.203842         0.971121         1.990980
 C         2.361816        -0.602147         1.708775
 O         3.313017        -1.110901         2.599683
 C         0.952572        -1.248962         1.440461
 C         0.926910        -0.206660         0.189633
 C         2.503073        -0.403556         0.202127
 O         3.511141        -0.863723        -0.536298
 H         0.907291         2.466231        -0.833580
 H         2.503607         2.988068        -0.127368
 H         2.473056         1.712025        -1.449562
 H         3.294815         1.350349         2.254387
 H         1.605392         1.501090         2.792204
 H         4.005768        -1.566168         2.098415
 H         1.108755        -2.342919         0.981427
 H         0.320807        -1.319485         2.349794
 H         0.304555        -0.300500        -0.715896
 H         3.337868        -1.782639        -0.785720
