19
Iteration:  3259charge 0 multiplicity 1
 C         1.893165         2.263197        -0.414587
 C         1.926837         0.951455         0.326408
 C         2.315566         0.976285         1.738436
 C         2.449970        -0.645628         1.860898
 O         3.119959        -1.086235         3.018565
 C         0.989869        -1.141827         1.582007
 C         1.109470        -0.470653         0.184002
 C         2.627482        -0.460644         0.107979
 O         3.455124        -0.806140        -1.007505
 H         2.807631         2.857645        -0.328075
 H         1.621986         1.948945        -1.456289
 H         1.089047         2.963230        -0.222847
 H         3.310992         1.356151         1.802502
 H         1.669535         1.486535         2.420998
 H         2.613556        -1.796257         3.409899
 H         0.924724        -2.245647         1.402137
 H         0.267514        -0.757980         2.241426
 H         0.459077        -0.667996        -0.709605
 H         3.065449        -1.508850        -1.601272
