19
Iteration:  3782
 C         1.782988         2.042447        -0.575820
 C         1.980527         0.958091         0.447977
 C         2.272427         1.021692         1.888420
 C         2.347482        -0.589377         1.848056
 O         3.163537        -1.202123         2.762478
 C         0.921016        -1.123008         1.427078
 C         1.160337        -0.351365         0.115590
 C         2.564310        -0.356988         0.190944
 O         3.569827        -0.777256        -0.657197
 H         2.723562         2.576614        -0.792792
 H         1.462625         1.644459        -1.570406
 H         0.933446         2.685227        -0.260658
 H         3.191446         1.473288         2.143290
 H         1.558786         1.650900         2.378358
 H         3.906523        -1.668347         2.343094
 H         1.070697        -2.240944         1.360585
 H         0.134096        -0.889439         2.136321
 H         0.553034        -0.189678        -0.731906
 H         3.158338        -1.566076        -1.031430
