19
Iteration:  4226
 C         1.691294         2.154646        -0.589379
 C         1.951596         0.966275         0.405799
 C         2.264761         1.010838         1.957971
 C         2.342466        -0.558529         1.872739
 O         3.101970        -1.257980         2.927867
 C         0.983951        -1.274685         1.323872
 C         1.131570        -0.360256         0.084837
 C         2.658380        -0.325868         0.158819
 O         3.638047        -0.722137        -0.715808
 H         2.665863         2.624029        -0.834866
 H         1.174372         1.892811        -1.445932
 H         1.096607         2.758999         0.005707
 H         3.309504         1.446028         1.969863
 H         1.602935         1.607927         2.714544
 H         3.882302        -1.615967         2.445351
 H         1.118308        -2.366258         1.074649
 H        -0.027177        -1.081986         1.821542
 H         0.486151        -0.417765        -0.813979
 H         3.338500        -1.490342        -1.136996
