19
Iteration:   960charge 0 multiplicity 1
 C         1.823002         1.996573        -0.668070
 C         1.931297         0.972076         0.392727
 C         2.502687         1.065026         1.844250
 C         2.495444        -0.514194         1.840497
 O         3.313185        -1.339280         2.710242
 C         0.974804        -0.943092         1.685428
 C         1.008439        -0.250060         0.347014
 C         2.481422        -0.418779         0.167619
 O         3.217846        -0.936374        -0.916378
 H         1.844405         1.565022        -1.675425
 H         0.979335         2.668848        -0.492076
 H         2.687153         2.692373        -0.684273
 H         3.511204         1.460345         2.026873
 H         1.787870         1.619124         2.574201
 H         4.149250        -0.779424         2.783165
 H         0.814509        -2.065478         1.627999
 H         0.470395        -0.504931         2.547217
 H         0.132573        -0.181114        -0.242258
 H         3.287252        -1.942879        -0.731951
