19
Iteration:  1008
 C         1.706768         2.128607        -0.441332
 C         2.040898         0.921170         0.317368
 C         2.520702         1.072634         1.731971
 C         2.557374        -0.526455         1.804486
 O         3.235785        -1.248385         2.767699
 C         1.002999        -0.865549         1.718524
 C         1.004224        -0.274944         0.299711
 C         2.429225        -0.515414         0.100393
 O         3.310645        -1.103829        -0.889206
 H         2.349165         2.124954        -1.409001
 H         0.580746         2.297259        -0.470296
 H         2.082982         3.074482         0.050484
 H         3.499312         1.426385         1.604750
 H         2.053452         1.722786         2.448207
 H         4.091867        -0.865786         2.634493
 H         0.853374        -1.908171         1.675001
 H         0.273926        -0.442604         2.419741
 H         0.210989        -0.164455        -0.503660
 H         2.886335        -1.904971        -1.126050
