19
Iteration:   814charge 0 multiplicity 1
 C         1.731413         2.183247        -0.521570
 C         1.973709         0.945832         0.345206
 C         2.484123         1.070129         1.743420
 C         2.463614        -0.492434         1.825473
 O         3.197038        -1.242447         2.709049
 C         1.019104        -1.058346         1.704943
 C         1.042430        -0.394844         0.326989
 C         2.519206        -0.382533         0.109870
 O         3.348759        -1.048827        -0.795175
 H         1.177921         3.024577        -0.136165
 H         2.597526         2.596427        -1.069687
 H         1.177099         1.762701        -1.412605
 H         3.642090         1.278774         1.730223
 H         2.063455         1.702369         2.534949
 H         3.856229        -0.751290         3.168143
 H         1.045218        -2.149503         1.579023
 H         0.311117        -0.456890         2.430462
 H         0.317200        -0.263536        -0.550929
 H         3.045048        -1.528904        -1.549601
