19
Iteration:  1222charge 0 multiplicity 1
 C         1.832645         2.235962        -0.491590
 C         1.924192         0.904674         0.291094
 C         2.342146         1.011670         1.758393
 C         2.448867        -0.616570         1.771017
 O         3.428776        -1.233521         2.643862
 C         0.903764        -0.877998         1.746075
 C         0.993796        -0.313879         0.257524
 C         2.578119        -0.418000         0.166639
 O         3.293761        -1.109164        -0.795162
 H         0.862498         2.173449        -1.017299
 H         1.851520         2.994387         0.336003
 H         2.685688         2.292613        -1.205664
 H         3.412070         1.554550         1.738974
 H         1.712034         1.493795         2.436516
 H         4.125141        -0.540670         2.671178
 H         0.625883        -1.978545         1.600707
 H         0.168942        -0.424657         2.408481
 H         0.132808        -0.227992        -0.370486
 H         3.354074        -1.959210        -0.420878
