19
Iteration:  3314charge 0 multiplicity 1
 C         1.887871         2.097495        -0.718105
 C         1.945278         0.980210         0.323541
 C         2.273890         0.950726         1.931756
 C         2.399238        -0.585394         1.835354
 O         3.238758        -1.262651         2.717833
 C         0.951949        -1.054189         1.618343
 C         1.000439        -0.275427         0.242882
 C         2.571390        -0.284107         0.177364
 O         3.487899        -0.820004        -0.713066
 H         2.342134         3.021125        -0.351795
 H         2.528604         1.872424        -1.585707
 H         0.847709         2.387819        -0.836795
 H         3.212617         1.342974         2.239792
 H         1.516987         1.182878         2.661128
 H         3.509838        -2.123681         2.371693
 H         0.864575        -2.147522         1.303914
 H         0.206468        -0.891571         2.330227
 H         0.356611        -0.405440        -0.630336
 H         3.401943        -1.838430        -0.753070
