19
Iteration:  2124
 C         1.815918         2.124253        -0.524808
 C         2.047146         0.960065         0.347024
 C         2.500716         0.981589         1.836734
 C         2.454000        -0.547649         1.902226
 O         3.188833        -1.332760         2.757785
 C         1.008714        -0.953471         1.610140
 C         1.021896        -0.349857         0.232104
 C         2.573860        -0.390850         0.099912
 O         3.269318        -0.912097        -0.883912
 H         2.379598         2.944977        -0.192447
 H         2.021363         1.955714        -1.596190
 H         0.806696         2.575076        -0.545376
 H         3.487649         1.434175         1.799567
 H         1.982511         1.610343         2.657403
 H         3.691700        -0.779859         3.422433
 H         0.878558        -2.032442         1.570674
 H         0.259009        -0.613678         2.428858
 H         0.191743        -0.535321        -0.471712
 H         2.677324        -1.521346        -1.345041
