19
Iteration:  1546
 C         1.802990         2.162587        -0.524398
 C         2.050102         0.965105         0.440342
 C         2.570209         0.948196         1.852242
 C         2.468382        -0.536884         1.835820
 O         3.368821        -1.307696         2.610607
 C         0.950938        -0.877542         1.696086
 C         1.084511        -0.222533         0.331561
 C         2.477149        -0.464241         0.148397
 O         3.081102        -1.078909        -0.903247
 H         0.719085         2.346825        -0.830948
 H         2.405172         3.109142        -0.398629
 H         2.426110         1.796098        -1.432808
 H         3.534308         1.520423         1.950679
 H         1.871525         1.540062         2.580008
 H         4.009389        -0.634026         2.782420
 H         0.712943        -1.914369         1.569718
 H         0.430379        -0.441486         2.472586
 H         0.176277        -0.081294        -0.334705
 H         2.435684        -1.748374        -1.284418
