19
Iteration:  1349charge 0 multiplicity 1
 C         1.834445         2.218153        -0.549979
 C         1.883671         0.921463         0.326344
 C         2.586380         1.000588         1.704982
 C         2.480994        -0.553027         1.787174
 O         3.274800        -1.292286         2.799696
 C         0.995810        -0.912802         1.663855
 C         0.966620        -0.351078         0.273750
 C         2.448746        -0.513503         0.192490
 O         3.242891        -0.912432        -0.847372
 H         2.567089         2.032166        -1.332317
 H         0.828070         2.477802        -0.940652
 H         2.199090         3.003252         0.162150
 H         3.604639         1.251341         1.638715
 H         2.029701         1.571635         2.519751
 H         4.126226        -0.782996         2.859558
 H         0.953057        -2.027547         1.690162
 H         0.380431        -0.582420         2.648009
 H         0.200355        -0.511629        -0.450265
 H         3.230458        -1.860882        -1.064448
