19
Iteration:  1898charge 0 multiplicity 1
 C         1.984313         2.107495        -0.653836
 C         1.931539         0.962753         0.434121
 C         2.450586         0.941257         1.899176
 C         2.454980        -0.623277         1.857360
 O         3.388379        -1.307192         2.639964
 C         0.889091        -0.927191         1.751880
 C         1.020262        -0.222660         0.347161
 C         2.414521        -0.393699         0.132922
 O         3.226686        -0.938211        -0.933607
 H         2.411543         1.757826        -1.581469
 H         1.061026         2.623815        -0.870379
 H         2.603265         2.896986        -0.340155
 H         3.468842         1.374473         2.249951
 H         1.587452         1.375709         2.485066
 H         3.948804        -0.683957         3.126563
 H         0.699947        -2.009909         1.424032
 H         0.322492        -0.643954         2.651887
 H         0.430273        -0.306620        -0.619245
 H         2.652014        -1.583518        -1.302212
