19
Iteration:  1005
 C         1.701508         2.135736        -0.465582
 C         2.051781         0.921116         0.320734
 C         2.517912         1.084936         1.711211
 C         2.562124        -0.557164         1.784768
 O         3.217011        -1.249962         2.784736
 C         1.025267        -0.875250         1.731383
 C         1.010318        -0.297944         0.295090
 C         2.441279        -0.473906         0.095978
 O         3.283268        -1.082268        -0.875396
 H         2.314930         2.088384        -1.398882
 H         0.615080         2.322127        -0.465818
 H         2.131283         2.948861         0.140859
 H         3.543313         1.425547         1.636042
 H         2.101901         1.848095         2.501402
 H         4.161805        -0.931488         2.643343
 H         0.862880        -1.978746         1.594820
 H         0.259695        -0.475640         2.392127
 H         0.177400        -0.160471        -0.487386
 H         2.874490        -2.013923        -1.036843
