19
Iteration:   996charge 0 multiplicity 1
 C         1.732999         2.153593        -0.515387
 C         1.999942         0.941700         0.322739
 C         2.599515         1.075663         1.705110
 C         2.483611        -0.551244         1.766342
 O         3.199494        -1.249375         2.801661
 C         1.055054        -0.937714         1.699143
 C         1.030031        -0.341978         0.321753
 C         2.537904        -0.413029         0.093768
 O         3.193753        -1.030513        -0.844542
 H         2.052426         2.186271        -1.641401
 H         0.630886         2.398016        -0.672152
 H         2.239981         2.928212         0.095345
 H         3.595538         1.332561         1.690649
 H         1.972075         1.666922         2.415617
 H         4.198477        -1.262664         2.829180
 H         0.944825        -2.001925         1.637901
 H         0.443716        -0.536440         2.507495
 H         0.119589        -0.304897        -0.404947
 H         3.008633        -2.038614        -0.741761
