19
Iteration:  4973charge 0 multiplicity 1
 C         2.001443         2.200894        -0.512236
 C         1.840697         1.002110         0.385341
 C         2.290362         0.944274         1.911442
 C         2.357224        -0.656856         1.779986
 O         3.125528        -1.238065         2.788572
 C         0.994621        -1.214428         1.470556
 C         0.999202        -0.358843         0.181338
 C         2.501491        -0.331445         0.102612
 O         3.558422        -0.821964        -0.718365
 H         1.591361         3.059228        -0.039657
 H         3.020385         2.418335        -0.764610
 H         1.311180         1.988355        -1.327083
 H         3.281225         1.171913         1.914469
 H         1.751337         1.343238         2.846570
 H         3.965698        -0.784252         2.748678
 H         1.045825        -2.254493         1.214791
 H         0.224197        -1.119312         2.329055
 H         0.324562        -0.518891        -0.576878
 H         3.486006        -0.359812        -1.537595
