19
Iteration:  2733charge 0 multiplicity 1
 C         1.837257         2.027444        -0.514399
 C         1.959813         0.960271         0.438004
 C         2.207600         0.974364         1.878982
 C         2.450649        -0.533177         1.720761
 O         3.229921        -1.244051         2.752916
 C         0.968438        -0.985816         1.535770
 C         1.010859        -0.331483         0.190063
 C         2.587930        -0.378208         0.126808
 O         3.550974        -0.810832        -0.739636
 H         2.475798         3.006494        -0.301333
 H         2.179543         1.694982        -1.542736
 H         0.757988         2.367654        -0.499091
 H         3.133193         1.568840         2.030343
 H         1.371370         1.368741         2.442056
 H         3.301369        -2.217575         2.650170
 H         0.711403        -2.032698         1.601397
 H         0.250285        -0.568781         2.265462
 H         0.282207        -0.305070        -0.571369
 H         3.552852        -1.779878        -1.042186
