19
Iteration:  4500
 C         1.929462         2.214565        -0.527479
 C         1.793352         0.946164         0.371443
 C         2.221574         0.992554         1.927781
 C         2.293965        -0.565833         1.807299
 O         3.246704        -1.177248         2.592693
 C         0.936557        -1.211445         1.443434
 C         1.045709        -0.406598         0.194419
 C         2.547543        -0.395837         0.232102
 O         3.610404        -0.825125        -0.567259
 H         1.575178         3.148406         0.088535
 H         3.027479         2.260569        -0.759198
 H         1.276141         2.186486        -1.436615
 H         3.248331         1.253534         1.914076
 H         1.656050         1.529057         2.651490
 H         4.066367        -0.975448         2.067158
 H         1.266038        -2.261685         1.257690
 H         0.158922        -1.218069         2.187590
 H         0.333450        -0.424656        -0.722348
 H         3.229560        -1.324474        -1.278554
