19
Iteration:  4084
 C         1.765522         2.043626        -0.659239
 C         1.856763         0.887521         0.412561
 C         2.209961         0.994942         1.958767
 C         2.345351        -0.555029         1.797014
 O         3.179669        -1.353841         2.571541
 C         0.881876        -0.997439         1.555856
 C         1.108463        -0.493381         0.073259
 C         2.608602        -0.379711         0.258254
 O         3.765939        -0.545639        -0.528617
 H         2.681394         2.729162        -0.517834
 H         1.830479         1.565781        -1.642941
 H         0.731210         2.506994        -0.533137
 H         3.197768         1.389782         2.169157
 H         1.491997         1.534451         2.523662
 H         3.475857        -2.022731         1.911590
 H         0.711596        -2.006555         1.798962
 H         0.115481        -0.362374         2.085764
 H         0.241036        -0.493277        -0.689976
 H         3.856116        -1.430392        -0.787159
