19
Iteration:  4760charge 0 multiplicity 1
 C         1.718783         2.131135        -0.476243
 C         1.882276         0.898975         0.334860
 C         2.433405         0.910056         1.815612
 C         2.355941        -0.546968         1.822656
 O         3.172992        -1.166364         2.840778
 C         0.959802        -1.110330         1.433184
 C         0.991037        -0.360072         0.139740
 C         2.578846        -0.483652         0.092409
 O         3.652226        -0.683880        -0.721715
 H         1.251253         2.966972         0.115951
 H         2.609306         2.632130        -0.894681
 H         0.974927         2.108786        -1.282672
 H         3.589230         1.051382         1.830274
 H         1.924744         1.508109         2.638222
 H         2.810714        -1.959819         3.258221
 H         1.055247        -2.274259         1.237657
 H         0.065290        -0.928543         2.061030
 H         0.117985        -0.250684        -0.391623
 H         4.134666        -1.493337        -0.671467
