19
Iteration:   474
 C         1.686884         2.062661        -0.687311
 C         1.864271         0.997424         0.362760
 C         2.290910         1.060365         1.959302
 C         2.438890        -0.448842         1.829478
 O         3.180808        -1.236961         2.752823
 C         0.971463        -1.056924         1.596680
 C         1.203858        -0.523989         0.172054
 C         2.614486        -0.386865         0.199044
 O         3.501813        -0.885031        -0.731042
 H         1.314104         2.952636        -0.260591
 H         2.593518         2.287322        -1.253737
 H         0.991405         1.585350        -1.336152
 H         3.071447         1.647135         2.311316
 H         1.424261         1.307741         2.668596
 H         4.059804        -1.400756         2.317171
 H         0.990242        -2.127664         1.452144
 H        -0.030052        -0.836341         2.051330
 H         0.494168        -0.719994        -0.757722
 H         4.092521        -0.175162        -0.962084
