19
Iteration:   262charge 0 multiplicity 1
 C         1.774951         2.060350        -0.720953
 C         1.857619         0.967344         0.320395
 C         2.218931         1.044164         1.885899
 C         2.459289        -0.493544         1.873766
 O         3.358105        -1.254512         2.677364
 C         1.026437        -1.138860         1.519573
 C         1.084668        -0.283978         0.210193
 C         2.526828        -0.395682         0.236499
 O         3.412461        -0.952082        -0.594554
 H         0.795004         2.249597        -1.218823
 H         2.028069         2.935724        -0.073293
 H         2.645061         1.951806        -1.371746
 H         3.209070         1.589770         1.944452
 H         1.448189         1.521041         2.499007
 H         3.896907        -0.699689         3.299202
 H         1.221261        -2.211600         1.266404
 H         0.205598        -1.002352         2.427541
 H         0.439150        -0.346900        -0.741328
 H         3.171341        -0.791068        -1.499199
