19
Iteration:  2076
 C         1.983321         2.131069        -0.548746
 C         1.961640         0.962492         0.377399
 C         2.436872         0.927679         1.804554
 C         2.442079        -0.582132         1.816227
 O         3.369071        -1.302581         2.670460
 C         0.904795        -0.952809         1.647376
 C         0.964148        -0.330096         0.328708
 C         2.434165        -0.467352         0.119142
 O         3.249894        -0.848466        -0.838843
 H         1.750401         3.072990         0.035026
 H         2.881381         2.334057        -1.105379
 H         1.263925         2.089437        -1.299773
 H         3.485736         1.260420         2.041546
 H         1.775397         1.581220         2.498237
 H         3.772306        -0.537229         3.055851
 H         0.737300        -2.060842         1.611785
 H         0.133662        -0.504020         2.274194
 H         0.284575        -0.276736        -0.528269
 H         3.256799        -1.799323        -0.676768
