19
Iteration:  1521charge 0 multiplicity 1
 C         1.904465         2.095134        -0.675054
 C         1.995676         0.970860         0.351014
 C         2.578835         1.001167         1.853379
 C         2.522839        -0.512012         1.744433
 O         3.289660        -1.413227         2.605012
 C         0.978656        -0.939383         1.792302
 C         0.896426        -0.205558         0.473103
 C         2.406914        -0.411590         0.172873
 O         3.164679        -0.907641        -0.908787
 H         0.917706         2.560621        -0.578641
 H         2.676746         2.841559        -0.506727
 H         2.132919         1.759600        -1.737742
 H         3.629666         1.540138         1.825701
 H         2.032033         1.370137         2.711845
 H         4.028307        -0.904268         2.941625
 H         0.759988        -1.980030         1.606221
 H         0.539629        -0.640662         2.796960
 H         0.186268        -0.450577        -0.222714
 H         3.183052        -1.932117        -0.775603
