19
Iteration:   959
 C         1.830747         1.989674        -0.668592
 C         1.934403         0.967821         0.389223
 C         2.496554         1.056864         1.836889
 C         2.502520        -0.513003         1.843684
 O         3.315037        -1.339187         2.703715
 C         0.973030        -0.944055         1.684607
 C         0.998842        -0.248669         0.349723
 C         2.480698        -0.411565         0.170007
 O         3.219812        -0.930887        -0.912795
 H         1.809020         1.540515        -1.639040
 H         0.990069         2.636032        -0.466981
 H         2.704104         2.668722        -0.672746
 H         3.528179         1.497701         2.050477
 H         1.774034         1.608101         2.568014
 H         4.128463        -0.750663         2.771260
 H         0.802487        -2.074923         1.640825
 H         0.453127        -0.469080         2.536858
 H         0.148437        -0.156158        -0.232270
 H         3.268986        -1.932049        -0.729439
