19
Iteration:  3510charge 0 multiplicity 1
 C         1.865447         1.998003        -0.711931
 C         1.879974         0.982071         0.447151
 C         2.268399         1.013727         1.919792
 C         2.429453        -0.606434         1.801133
 O         3.189677        -1.223284         2.760628
 C         1.014877        -1.089364         1.508698
 C         1.114118        -0.301578         0.258071
 C         2.571344        -0.320332         0.208977
 O         3.370717        -0.869064        -0.782857
 H         2.521471         2.756276        -0.438087
 H         2.121561         1.569975        -1.695418
 H         0.893581         2.430527        -0.893574
 H         3.288992         1.446951         1.937703
 H         1.625495         1.579799         2.682868
 H         4.051042        -0.741123         2.828885
 H         0.665754        -2.137067         1.294342
 H         0.310260        -0.790140         2.224367
 H         0.423815        -0.425856        -0.632853
 H         4.171520        -1.309121        -0.377985
