19
Iteration:  2946charge 0 multiplicity 1
 C         1.859603         2.100531        -0.668588
 C         1.963949         1.034717         0.353718
 C         2.229828         1.025646         1.850672
 C         2.380114        -0.668747         1.765427
 O         3.343590        -1.340828         2.507098
 C         0.858832        -1.080611         1.537465
 C         1.043218        -0.263767         0.283551
 C         2.565604        -0.395791         0.310200
 O         3.509594        -0.883094        -0.598907
 H         2.789268         2.318493        -1.233033
 H         1.070850         1.805280        -1.440111
 H         1.373478         3.049476        -0.198715
 H         3.090449         1.538460         2.245943
 H         1.390815         1.363678         2.459250
 H         3.133560        -1.135022         3.459568
 H         0.684323        -2.130999         1.393457
 H         0.096562        -0.700602         2.252986
 H         0.375331        -0.173651        -0.554254
 H         4.310505        -0.370578        -0.356984
