19
Iteration:  1500charge 0 multiplicity 1
 C         1.954985         1.939070        -0.603135
 C         1.857938         0.961498         0.463130
 C         2.527643         1.044124         1.727422
 C         2.501456        -0.502850         1.802007
 O         3.288123        -1.440883         2.558179
 C         1.030863        -0.855264         1.809090
 C         0.887150        -0.257720         0.385230
 C         2.349203        -0.477354         0.199565
 O         3.221600        -0.787554        -0.875034
 H         1.259807         2.820169        -0.479375
 H         2.960700         2.359103        -0.694570
 H         1.799326         1.656913        -1.670499
 H         3.670049         1.165306         1.595564
 H         2.310686         1.607526         2.631561
 H         4.223800        -1.157781         2.503655
 H         0.967041        -1.904978         1.854706
 H         0.460926        -0.376041         2.544358
 H         0.069126        -0.061936        -0.193755
 H         3.565950        -1.658051        -0.672235
