19
Iteration:   537
 C         1.777122         2.003253        -0.618419
 C         1.789948         0.889922         0.358452
 C         2.341546         0.982854         1.836077
 C         2.364323        -0.554315         1.774482
 O         3.307760        -1.211295         2.572904
 C         0.945572        -0.976113         1.644823
 C         1.037758        -0.474598         0.156239
 C         2.514047        -0.418675         0.217135
 O         3.554788        -0.827117        -0.542723
 H         0.740573         2.457609        -0.938832
 H         2.305949         2.962985        -0.153377
 H         2.281436         1.896608        -1.595056
 H         3.448766         1.297809         1.735995
 H         1.793660         1.502135         2.707778
 H         4.014778        -0.561720         2.792578
 H         0.778012        -2.011388         1.629165
 H         0.178071        -0.533037         2.310496
 H         0.259217        -0.726388        -0.653496
 H         3.925076        -0.094120        -0.985016
