19
Iteration:  3862charge 0 multiplicity 1
 C         1.850869         2.183305        -0.613448
 C         1.902541         1.008606         0.354849
 C         2.155871         1.018405         1.880766
 C         2.366134        -0.634934         1.840428
 O         3.288267        -1.233132         2.708791
 C         0.945534        -1.229436         1.445907
 C         1.112152        -0.343718         0.135386
 C         2.597215        -0.396328         0.262368
 O         3.545473        -0.742842        -0.696586
 H         2.807315         2.811168        -0.619011
 H         1.611312         1.658047        -1.617093
 H         1.060449         2.975056        -0.347370
 H         3.225551         1.206419         2.124746
 H         1.494433         1.452051         2.562350
 H         2.899571        -1.198277         3.611713
 H         0.861849        -2.377151         1.247571
 H         0.204503        -0.914745         2.145724
 H         0.449138        -0.588749        -0.762843
 H         3.662091        -1.654392        -0.465047
