19
Iteration:   126charge 0 multiplicity 1
 C         1.797692         2.093543        -0.647137
 C         1.934396         1.021844         0.384195
 C         2.242738         1.023517         2.017235
 C         2.471652        -0.480279         1.799920
 O         3.314821        -1.191235         2.660002
 C         0.889475        -1.000994         1.606746
 C         1.082358        -0.379115         0.190676
 C         2.525703        -0.443309         0.214138
 O         3.436997        -1.057262        -0.751674
 H         2.192803         1.823266        -1.630368
 H         0.754770         2.308028        -0.905344
 H         2.324028         3.069938        -0.462991
 H         3.196318         1.458930         2.394726
 H         1.357535         1.222411         2.643385
 H         4.122124        -1.417365         2.176896
 H         0.936720        -2.132020         1.741079
 H         0.163664        -0.422490         2.335191
 H         0.570092        -0.667555        -0.695135
 H         3.795311        -0.280314        -1.160255
