19
Iteration:  4422charge 0 multiplicity 1
 C         1.681802         2.138626        -0.510042
 C         1.875253         0.957238         0.335146
 C         2.297137         0.979313         1.849747
 C         2.418082        -0.542754         1.833385
 O         3.133409        -1.360357         2.684393
 C         0.930787        -1.053401         1.454804
 C         1.127646        -0.490580         0.049263
 C         2.524218        -0.396280         0.165860
 O         3.720532        -0.706568        -0.481389
 H         2.176476         2.958981         0.157696
 H         2.260263         2.099096        -1.477808
 H         0.642162         2.450422        -0.720237
 H         3.273853         1.463937         1.928461
 H         1.705708         1.462605         2.557840
 H         4.002496        -1.360274         2.212076
 H         0.888685        -2.180928         1.608339
 H         0.163741        -0.642620         2.024643
 H         0.288543        -0.354757        -0.569928
 H         3.452003        -0.919637        -1.342595
