19
Iteration:   693charge 0 multiplicity 1
 C         1.744985         2.031709        -0.644161
 C         1.935869         0.914763         0.346293
 C         2.454890         0.981335         1.782983
 C         2.380401        -0.498243         1.808695
 O         3.238574        -1.261760         2.556558
 C         0.954617        -1.001113         1.705865
 C         1.005276        -0.397080         0.267519
 C         2.485507        -0.422139         0.222863
 O         3.508469        -0.882821        -0.584924
 H         2.575745         2.063176        -1.377148
 H         0.761313         1.892793        -1.250562
 H         1.570545         3.051936        -0.162940
 H         3.464074         1.372924         1.816221
 H         1.851049         1.484340         2.511630
 H         4.140889        -0.883084         2.652475
 H         0.790902        -2.015356         1.563733
 H         0.332454        -0.407435         2.402905
 H         0.322551        -0.345566        -0.475016
 H         3.470745        -0.207635        -1.346746
