19
Iteration:  4657
 C         2.008943         2.165721        -0.535436
 C         1.782848         1.025301         0.431139
 C         2.189958         0.972337         1.868532
 C         2.335506        -0.533435         1.848275
 O         3.387686        -1.202224         2.574995
 C         0.903868        -1.152641         1.506421
 C         0.981994        -0.396127         0.190987
 C         2.445001        -0.349734         0.222894
 O         3.574026        -0.855709        -0.613637
 H         1.079865         2.548272        -0.982194
 H         2.506168         3.059384        -0.043723
 H         2.745706         1.881102        -1.365648
 H         3.113100         1.483517         2.027303
 H         1.406482         1.259971         2.548263
 H         3.963317        -1.591859         1.909301
 H         1.091173        -2.169351         1.272240
 H        -0.055304        -1.008067         2.041564
 H         0.265658        -0.415672        -0.688506
 H         3.491399        -1.872634        -0.730438
