19
Iteration:  2651
 C         1.846563         2.215905        -0.476938
 C         1.875720         0.883072         0.368937
 C         2.165816         1.014335         1.903025
 C         2.385458        -0.548540         1.740683
 O         3.212936        -1.139217         2.665228
 C         0.932058        -1.090908         1.583826
 C         1.015504        -0.383632         0.202935
 C         2.666951        -0.399129         0.189374
 O         3.655047        -0.949070        -0.722972
 H         2.794025         2.270104        -0.932916
 H         1.045315         2.257209        -1.181299
 H         1.806156         3.114104         0.138047
 H         3.087894         1.576429         2.068413
 H         1.285031         1.425307         2.481362
 H         3.384261        -2.065487         2.542731
 H         0.796546        -2.195559         1.454668
 H         0.339825        -0.676166         2.305856
 H         0.396941        -0.555883        -0.718024
 H         3.300068        -1.013146        -1.617559
