19
Iteration:  3894charge 0 multiplicity 1
 C         1.810284         1.942763        -0.620212
 C         1.851042         0.898945         0.433196
 C         2.170415         1.026233         1.915694
 C         2.373265        -0.514639         1.777202
 O         3.167272        -1.407304         2.491035
 C         0.975731        -0.993544         1.545453
 C         1.116015        -0.326588         0.159622
 C         2.576578        -0.413337         0.284270
 O         3.696923        -0.609842        -0.579277
 H         2.547167         2.789857        -0.581955
 H         1.995364         1.420659        -1.661849
 H         0.743626         2.369020        -0.827996
 H         3.169510         1.452022         2.147818
 H         1.433251         1.361957         2.584372
 H         3.463726        -0.938902         3.283516
 H         0.810573        -2.163332         1.477229
 H         0.356274        -0.492195         2.194085
 H         0.244164        -0.350344        -0.602391
 H         3.708158        -1.591795        -0.789415
