19
Iteration:  4853charge 0 multiplicity 1
 C         1.913328         2.178128        -0.515059
 C         1.870926         0.958161         0.416810
 C         2.307564         0.923788         1.916174
 C         2.357732        -0.544545         1.755580
 O         3.286667        -1.194217         2.614442
 C         0.924706        -1.101859         1.510600
 C         0.933202        -0.342382         0.132569
 C         2.489794        -0.413546         0.185204
 O         3.572574        -0.863091        -0.533372
 H         0.984190         2.562238        -0.894119
 H         2.484822         2.966140        -0.039793
 H         2.386448         1.868107        -1.463939
 H         3.362160         1.096818         2.134275
 H         1.487086         1.179483         2.688621
 H         4.070112        -1.316699         2.005480
 H         0.932195        -2.164426         1.362962
 H         0.021512        -0.851069         2.198022
 H         0.253900        -0.494234        -0.780810
 H         3.474604        -0.803682        -1.562545
