19
Iteration:  3013charge 0 multiplicity 1
 C         1.923870         2.138885        -0.558844
 C         1.941381         0.903388         0.378831
 C         2.219733         0.933366         1.836106
 C         2.344399        -0.571806         1.787180
 O         3.352614        -1.259777         2.573040
 C         0.859762        -0.987313         1.582043
 C         0.955548        -0.299745         0.217940
 C         2.562190        -0.540164         0.205387
 O         3.539877        -0.806620        -0.663647
 H         2.436167         3.098230        -0.284237
 H         2.260938         2.040325        -1.606150
 H         0.850916         2.508914        -0.582058
 H         3.126693         1.496259         2.092301
 H         1.493064         1.134145         2.592818
 H         3.830601        -0.568747         3.028097
 H         0.738030        -2.106453         1.550876
 H         0.110972        -0.685346         2.278711
 H         0.152125         0.002131        -0.569532
 H         3.814981        -1.765692        -0.684845
