19
Iteration:  3397charge 0 multiplicity 1
 C         1.779112         2.061648        -0.722394
 C         1.886417         0.944933         0.407253
 C         2.247618         1.067217         1.904834
 C         2.428470        -0.499537         1.783370
 O         3.165931        -1.356924         2.563256
 C         1.051988        -1.044185         1.525024
 C         1.009774        -0.229600         0.233407
 C         2.563576        -0.347574         0.262916
 O         3.561320        -1.020999        -0.517481
 H         2.802187         2.462745        -0.862273
 H         1.115948         1.805644        -1.526969
 H         1.220068         2.942052        -0.327476
 H         3.270967         1.538511         1.966978
 H         1.520087         1.491072         2.654571
 H         4.130775        -1.194758         2.399458
 H         1.051463        -2.140934         1.459211
 H         0.274406        -0.737825         2.316279
 H         0.260949        -0.072646        -0.558644
 H         3.883102        -0.479070        -1.223735
