19
Iteration:  3442
 C         1.801998         2.176771        -0.495849
 C         1.925894         0.912185         0.328453
 C         2.270174         0.922561         1.820645
 C         2.436023        -0.591675         1.845854
 O         3.116545        -1.110039         2.949339
 C         1.046376        -1.017461         1.502993
 C         1.195574        -0.386813         0.165209
 C         2.613261        -0.476356         0.133644
 O         3.363561        -0.936424        -0.951141
 H         2.797411         2.506553        -0.801352
 H         1.105097         2.009486        -1.283468
 H         1.264780         2.985669         0.020691
 H         3.256520         1.407227         2.045950
 H         1.502333         1.253020         2.596465
 H         3.878773        -0.536623         3.189155
 H         0.755136        -2.091062         1.389522
 H         0.319399        -0.633497         2.222506
 H         0.466588        -0.671778        -0.524378
 H         4.265861        -0.946028        -0.688776
