19
Iteration:  3187
 C         1.866621         2.029227        -0.738386
 C         1.952837         0.996392         0.400195
 C         2.182653         1.021600         1.995831
 C         2.387051        -0.584807         1.816482
 O         3.413359        -1.316146         2.541750
 C         0.852738        -1.018555         1.581387
 C         1.045367        -0.273768         0.162296
 C         2.500163        -0.380494         0.230545
 O         3.562602        -0.764977        -0.556560
 H         2.753488         2.058815        -1.382761
 H         0.943546         1.731537        -1.245741
 H         1.641352         3.091855        -0.575181
 H         3.114834         1.639038         2.099935
 H         1.336064         1.281301         2.736810
 H         3.134007        -2.241461         2.451641
 H         0.681064        -2.027303         1.325675
 H         0.192277        -0.554929         2.387326
 H         0.329672        -0.382850        -0.689667
 H         3.595030        -1.746446        -0.491700
