19
Iteration:  2131
 C         1.783758         2.151407        -0.574943
 C         2.079482         0.946406         0.354055
 C         2.503297         0.930012         1.888487
 C         2.443425        -0.531696         1.899972
 O         3.231593        -1.348097         2.794517
 C         0.950715        -0.981450         1.630241
 C         1.022914        -0.313132         0.211579
 C         2.501886        -0.356747         0.067259
 O         3.305698        -0.912315        -0.862638
 H         2.505364         3.038265        -0.391660
 H         1.821765         1.748326        -1.580167
 H         0.820686         2.587437        -0.386541
 H         3.566127         1.215307         1.711855
 H         1.986618         1.626618         2.628075
 H         3.820898        -0.653179         3.140485
 H         0.916946        -2.085967         1.621217
 H         0.223973        -0.623232         2.339798
 H         0.363188        -0.267452        -0.747197
 H         2.724148        -1.548482        -1.210529
