19
Iteration:  4965charge 0 multiplicity 1
 C         1.928038         2.245027        -0.524233
 C         1.955759         0.993963         0.438163
 C         2.308570         0.882411         1.862335
 C         2.350129        -0.689500         1.778066
 O         3.132813        -1.238167         2.793071
 C         0.988768        -1.190627         1.471238
 C         0.976921        -0.372699         0.171818
 C         2.510582        -0.323743         0.116479
 O         3.502936        -0.807221        -0.690280
 H         1.384730         3.099155        -0.153708
 H         2.978672         2.444441        -0.793639
 H         1.445942         1.823627        -1.443341
 H         3.401901         1.181509         1.919683
 H         1.864718         1.502483         2.670280
 H         3.941536        -0.759740         2.914571
 H         1.077335        -2.240642         1.124473
 H         0.180197        -1.024942         2.217556
 H         0.310770        -0.549174        -0.697039
 H         3.779212        -0.277774        -1.406680
