19
Iteration:  2973
 C         1.949019         2.091116        -0.583698
 C         1.755314         0.977483         0.395836
 C         2.306426         1.026797         1.900017
 C         2.376635        -0.467480         1.786612
 O         3.248922        -1.344329         2.375125
 C         0.977367        -1.052728         1.583556
 C         0.984228        -0.394161         0.125644
 C         2.485527        -0.335705         0.273876
 O         3.516733        -0.892183        -0.541615
 H         3.041677         2.190081        -0.598386
 H         1.586314         1.685635        -1.511422
 H         1.261054         2.881656        -0.504312
 H         3.284265         1.590306         1.933392
 H         1.655477         1.449413         2.740452
 H         3.596032        -0.982693         3.235192
 H         1.330326        -2.179505         1.557586
 H         0.222978        -0.871633         2.373436
 H         0.224268        -0.205370        -0.668541
 H         4.296131        -0.905838         0.067528
