19
Iteration:  1610
 C         1.843434         2.237144        -0.485411
 C         1.917135         0.966343         0.323610
 C         2.573203         1.003579         1.751905
 C         2.458123        -0.511424         1.806699
 O         3.296194        -1.389466         2.541811
 C         1.046631        -0.871231         1.758853
 C         0.920643        -0.222957         0.334405
 C         2.437186        -0.401987         0.125149
 O         3.241399        -1.128670        -0.727972
 H         0.807092         2.607957        -0.573491
 H         2.320487         3.034998         0.089056
 H         2.323502         2.055489        -1.486340
 H         3.652274         1.285877         1.462984
 H         2.185555         1.546665         2.591409
 H         4.197158        -1.171908         2.260332
 H         1.002706        -1.971554         1.762604
 H         0.589241        -0.580541         2.818750
 H         0.096473        -0.083026        -0.426965
 H         2.632424        -1.821586        -1.150397
