19
Iteration:  1951charge 0 multiplicity 1
 C         1.871397         2.270519        -0.525465
 C         1.967746         0.966455         0.364055
 C         2.531369         0.963749         1.718669
 C         2.436742        -0.638374         1.787365
 O         3.222379        -1.340984         2.729937
 C         0.932927        -1.007138         1.719336
 C         0.940783        -0.233484         0.372211
 C         2.521368        -0.447902         0.144402
 O         3.327206        -0.960103        -0.905770
 H         1.094006         2.232807        -1.303934
 H         1.416180         3.049527         0.117487
 H         2.812213         2.548990        -1.077234
 H         3.619319         1.352683         1.572715
 H         2.078995         1.724054         2.326506
 H         3.983863        -0.750731         2.828583
 H         0.872687        -2.069180         1.669480
 H         0.338970        -0.564538         2.506886
 H         0.100980        -0.313399        -0.399736
 H         3.228144        -1.872761        -0.644006
