19
Iteration:    69charge 0 multiplicity 1
 C         1.806477         2.196189        -0.660148
 C         1.844308         0.978928         0.319850
 C         2.405567         0.937757         1.816494
 C         2.365808        -0.512107         1.788867
 O         3.326512        -1.142434         2.634199
 C         1.022094        -1.108745         1.625060
 C         1.010644        -0.427624         0.246553
 C         2.502048        -0.386545         0.176416
 O         3.419858        -0.925868        -0.651872
 H         2.492342         1.950493        -1.492209
 H         0.783786         2.415625        -1.022172
 H         2.086343         3.018410        -0.099788
 H         3.431611         1.121616         1.816022
 H         2.012573         1.579390         2.655298
 H         2.919048        -1.920347         3.086072
 H         1.050270        -2.201934         1.620214
 H         0.190466        -0.880304         2.390748
 H         0.048523        -0.451258        -0.433702
 H         4.330775        -0.654120        -0.246959
