19
Iteration:  3337charge 0 multiplicity 1
 C         1.901667         2.047916        -0.593138
 C         1.799647         0.953770         0.439195
 C         2.382113         1.029126         1.798966
 C         2.391600        -0.518977         1.807685
 O         3.257181        -1.303782         2.521197
 C         0.877332        -0.969045         1.563838
 C         0.942634        -0.363606         0.219581
 C         2.449819        -0.464092         0.208715
 O         3.618554        -0.766463        -0.474180
 H         2.547615         2.881044        -0.325219
 H         2.483294         1.598463        -1.405886
 H         0.959284         2.518164        -0.887906
 H         3.364524         1.435083         1.751547
 H         1.810604         1.539990         2.542827
 H         3.772289        -1.824639         1.883810
 H         0.859461        -2.044788         1.686344
 H         0.115791        -0.501535         2.169879
 H         0.343817        -0.570766        -0.634677
 H         3.563420        -1.466335        -1.103963
