19
Iteration:   793
 C         1.755931         2.185255        -0.584936
 C         1.905051         0.903069         0.323392
 C         2.495526         1.006851         1.797426
 C         2.445251        -0.566822         1.743102
 O         3.291679        -1.215648         2.750669
 C         1.028636        -0.981675         1.623812
 C         0.927203        -0.281535         0.281461
 C         2.499969        -0.457574         0.196572
 O         3.374296        -1.034266        -0.712304
 H         1.737351         3.085687         0.058659
 H         2.681512         2.255976        -1.227915
 H         0.848654         2.325293        -1.302945
 H         3.365835         1.590314         1.691824
 H         1.808685         1.356783         2.576052
 H         4.159366        -0.754833         2.949430
 H         1.117997        -2.084971         1.446386
 H         0.433437        -0.587280         2.545103
 H         0.237090        -0.677703        -0.551749
 H         3.032961        -1.194569        -1.607986
