19
Iteration:  2868
 C         1.796843         2.295494        -0.510860
 C         1.961343         0.998575         0.363723
 C         2.343474         0.948337         1.853764
 C         2.459519        -0.596104         1.811129
 O         3.114560        -1.117469         2.941404
 C         0.996341        -1.134164         1.489586
 C         1.061147        -0.408045         0.167136
 C         2.531264        -0.478650         0.135664
 O         3.423662        -0.958257        -0.899530
 H         2.822175         2.713742        -0.585085
 H         1.535389         2.101455        -1.606195
 H         1.286254         3.195849         0.017777
 H         3.308048         1.406788         1.944026
 H         1.710075         1.221268         2.696471
 H         3.556612        -1.974684         2.736682
 H         1.066316        -2.163650         1.292615
 H         0.226192        -0.943848         2.320338
 H         0.474497        -0.222765        -0.737625
 H         4.364578        -0.614204        -0.715534
