19
Iteration:  1755charge 0 multiplicity 1
 C         1.852870         2.168354        -0.552304
 C         2.089556         0.982062         0.394104
 C         2.467644         1.047305         1.881448
 C         2.473792        -0.514846         1.808181
 O         3.295097        -1.357294         2.652803
 C         1.013506        -0.976147         1.704079
 C         1.000170        -0.215462         0.371470
 C         2.506408        -0.393590         0.162652
 O         3.084583        -1.077283        -0.969386
 H         2.540187         2.890038        -0.071646
 H         2.234067         2.094706        -1.575187
 H         0.848892         2.575833        -0.693613
 H         3.496053         1.415661         1.991638
 H         1.787910         1.565081         2.515156
 H         4.127580        -0.800173         2.719914
 H         0.881682        -2.093431         1.539999
 H         0.445403        -0.633641         2.627372
 H         0.484651        -0.201236        -0.524602
 H         2.993429        -2.023883        -0.950928
