19
Iteration:  2431
 C         1.884072         2.082272        -0.636134
 C         1.904974         0.963743         0.434609
 C         2.412229         0.937722         1.862446
 C         2.369007        -0.542625         1.771933
 O         3.262899        -1.337420         2.615433
 C         0.914216        -1.028278         1.630842
 C         0.969350        -0.312841         0.170655
 C         2.450859        -0.399656         0.182458
 O         3.515979        -0.760156        -0.635159
 H         1.065459         2.739204        -0.358095
 H         2.801709         2.707162        -0.689480
 H         1.636558         1.618525        -1.654007
 H         3.406379         1.230420         1.959195
 H         1.885552         1.464514         2.673015
 H         4.039292        -0.767155         2.680702
 H         0.868035        -2.140801         1.627638
 H         0.182053        -0.633118         2.339890
 H         0.317261        -0.301374        -0.749780
 H         3.249934        -1.743044        -0.758856
