19
Iteration:  4403
 C         1.732547         2.211806        -0.466917
 C         1.824636         0.929590         0.359241
 C         2.351971         0.933590         1.786712
 C         2.405523        -0.618619         1.700309
 O         3.031259        -1.253746         2.790175
 C         0.994242        -1.149771         1.495804
 C         1.003047        -0.381721         0.122371
 C         2.581228        -0.390022         0.146734
 O         3.773007        -0.684271        -0.578879
 H         2.382537         2.982481        -0.090036
 H         1.849113         1.934656        -1.454341
 H         0.733039         2.510133        -0.242282
 H         3.369936         1.282912         1.739231
 H         1.714702         1.336213         2.664018
 H         4.015733        -1.193826         2.706050
 H         1.029285        -2.188308         1.259545
 H         0.075560        -1.017804         2.200054
 H         0.408254        -0.756085        -0.825018
 H         3.608245        -1.276865        -1.306314
