19
Iteration:  2508charge 0 multiplicity 1
 C         1.898681         2.201405        -0.502383
 C         1.955457         0.880311         0.307037
 C         2.324958         0.889678         1.829541
 C         2.356496        -0.617906         1.890983
 O         3.165777        -1.222708         2.949447
 C         0.965210        -1.116303         1.541883
 C         1.053997        -0.301197         0.229279
 C         2.566796        -0.426216         0.066230
 O         3.447364        -0.740774        -0.920579
 H         2.062763         3.116660         0.029724
 H         2.508800         2.163061        -1.415528
 H         0.854782         2.105258        -0.931608
 H         3.351658         1.109376         1.859141
 H         1.906052         1.501337         2.616404
 H         3.762236        -0.498915         3.149269
 H         0.969534        -2.147118         1.149419
 H         0.330537        -0.907297         2.341622
 H         0.494164        -0.501931        -0.669335
 H         3.258027        -1.623833        -1.183914
