19
Iteration:   901charge 0 multiplicity 1
 C         1.995502         1.960145        -0.653224
 C         1.804189         0.976615         0.359918
 C         2.449216         1.045854         1.747727
 C         2.503657        -0.491558         1.743824
 O         3.371186        -1.325249         2.528019
 C         0.953121        -0.924986         1.759211
 C         0.869286        -0.365273         0.352837
 C         2.387211        -0.434614         0.201792
 O         3.309740        -0.806762        -0.632420
 H         1.054854         2.023286        -1.142472
 H         2.062756         2.916159        -0.153338
 H         2.868881         1.634161        -1.179294
 H         3.623484         1.409852         1.611561
 H         1.988815         1.670072         2.560756
 H         4.147455        -0.774382         2.649583
 H         0.957244        -2.026801         1.664962
 H         0.363882        -0.692585         2.745607
 H         0.167271        -0.543085        -0.571697
 H         3.087542        -1.680371        -0.906664
