19
Iteration:  3615
 C         1.719077         2.159304        -0.564322
 C         1.946206         0.930539         0.297844
 C         2.309271         1.038022         1.804156
 C         2.383886        -0.601836         1.826996
 O         3.157842        -1.179641         2.924668
 C         0.877402        -1.053660         1.545515
 C         1.079494        -0.352100         0.192939
 C         2.670419        -0.479364         0.138818
 O         3.604980        -0.898970        -0.757901
 H         2.794690         2.596434        -0.797844
 H         1.230967         2.052172        -1.556733
 H         1.187902         2.906417         0.121260
 H         3.372542         1.361881         1.991200
 H         1.584145         1.403777         2.570928
 H         3.935356        -1.672782         2.587555
 H         0.813112        -2.086372         1.283275
 H         0.186229        -0.543414         2.314210
 H         0.372639        -0.592698        -0.600250
 H         3.263721        -0.843903        -1.719961
