19
Iteration:  4419charge 0 multiplicity 1
 C         1.681248         2.151367        -0.493947
 C         1.874585         0.936911         0.329205
 C         2.314503         0.971800         1.856286
 C         2.417907        -0.537335         1.806247
 O         3.121015        -1.346418         2.715565
 C         0.944505        -1.079619         1.431622
 C         1.082419        -0.490419         0.055524
 C         2.523827        -0.405534         0.146067
 O         3.723745        -0.695156        -0.478826
 H         2.235448         2.933713         0.100249
 H         2.231242         2.184678        -1.549537
 H         0.631148         2.528051        -0.711093
 H         3.346493         1.474568         1.929080
 H         1.755269         1.537013         2.634899
 H         4.024552        -1.380214         2.327771
 H         0.942210        -2.212774         1.605052
 H         0.225120        -0.606976         2.147399
 H         0.323763        -0.355891        -0.664461
 H         3.474257        -0.991626        -1.414437
