19
Iteration:  4574charge 0 multiplicity 1
 C         1.705255         2.048208        -0.659406
 C         2.020063         1.031207         0.423702
 C         2.484926         0.963512         1.952137
 C         2.430103        -0.584437         1.841370
 O         3.034353        -1.339815         2.797544
 C         1.085374        -1.121604         1.416510
 C         1.045644        -0.347931         0.166967
 C         2.582927        -0.315026         0.190125
 O         3.411606        -0.690307        -0.791503
 H         0.597615         2.061932        -0.856210
 H         2.077578         2.962708        -0.163672
 H         2.154246         1.681320        -1.599059
 H         3.673455         1.060444         1.987596
 H         1.953008         1.383670         2.859562
 H         3.464996        -0.751763         3.449123
 H         1.225107        -2.298102         1.211642
 H         0.155392        -1.045229         1.995108
 H         0.285611        -0.093562        -0.652522
 H         3.792450        -1.543141        -0.552659
