19
Iteration:  3286
 C         1.873842         2.046932        -0.502560
 C         2.029071         0.915186         0.408413
 C         2.218786         1.030318         1.960140
 C         2.420069        -0.590131         1.875499
 O         3.192594        -1.088144         2.846304
 C         1.012260        -1.080157         1.473830
 C         1.202847        -0.319580         0.105341
 C         2.659319        -0.442306         0.187186
 O         3.305175        -0.846670        -0.955497
 H         2.339505         3.010891        -0.176354
 H         2.180676         1.738196        -1.526899
 H         0.833417         2.480621        -0.567923
 H         3.236303         1.444805         2.254717
 H         1.416967         1.295070         2.730829
 H         2.891539        -1.916081         3.212861
 H         0.978556        -2.101354         1.153152
 H         0.135556        -0.763036         2.232792
 H         0.517258        -0.105021        -0.679454
 H         3.289675        -1.824186        -1.228180
