19
Iteration:   140
 C         1.763970         2.108874        -0.711690
 C         1.976300         0.971561         0.361122
 C         2.259060         1.048468         1.851253
 C         2.412573        -0.534644         1.866928
 O         3.300338        -1.276917         2.679669
 C         0.984960        -1.080729         1.574451
 C         1.037237        -0.339659         0.261822
 C         2.601186        -0.343661         0.246944
 O         3.365058        -0.985814        -0.672208
 H         2.002159         1.633009        -1.665321
 H         0.746261         2.508167        -0.678670
 H         2.484368         2.946517        -0.466080
 H         3.264996         1.564067         2.050337
 H         1.566335         1.494051         2.552841
 H         4.219636        -1.189299         2.377647
 H         0.883011        -2.183684         1.377135
 H         0.081234        -0.823574         2.219376
 H         0.343389        -0.291275        -0.492665
 H         4.106177        -0.409683        -1.041309
