19
Iteration:  2638
 C         1.860853         2.208862        -0.537984
 C         1.896580         0.980024         0.320616
 C         2.192086         0.936954         1.796022
 C         2.375857        -0.575402         1.809761
 O         3.283081        -1.204948         2.647593
 C         0.919062        -1.028100         1.571318
 C         1.129061        -0.464719         0.156747
 C         2.551426        -0.379952         0.208995
 O         3.573582        -0.863478        -0.559225
 H         2.700692         2.421435        -1.077634
 H         1.041675         2.294031        -1.210561
 H         1.714174         2.968136         0.221743
 H         3.159042         1.442335         2.001858
 H         1.416230         1.226907         2.564486
 H         3.421706        -2.090560         2.206205
 H         0.957704        -2.099271         1.588936
 H         0.042179        -0.736569         2.199274
 H         0.394769        -0.436562        -0.616750
 H         3.128436        -1.008144        -1.434805
