19
Iteration:   590charge 0 multiplicity 1
 C         1.840416         2.084871        -0.613433
 C         1.907372         0.981471         0.398959
 C         2.216903         0.959521         1.866773
 C         2.465574        -0.521372         1.748001
 O         3.262358        -1.109842         2.710084
 C         1.051484        -1.161495         1.592540
 C         1.071030        -0.364701         0.256686
 C         2.623020        -0.360940         0.184866
 O         3.306918        -0.972988        -0.782574
 H         1.018867         1.954050        -1.368047
 H         1.586469         3.149596        -0.394937
 H         2.723856         2.127058        -1.206059
 H         3.103379         1.575227         2.199586
 H         1.445026         1.186311         2.500268
 H         3.749081        -0.582377         3.372651
 H         1.015859        -2.303674         1.616825
 H         0.184281        -0.870791         2.318875
 H         0.503817        -0.530787        -0.705221
 H         4.218329        -0.775520        -0.635695
