19
Iteration:  1811charge 0 multiplicity 1
 C         1.816342         2.131507        -0.526834
 C         2.043174         0.905594         0.364544
 C         2.539362         0.945560         1.801218
 C         2.451245        -0.503964         1.752617
 O         3.254896        -1.375435         2.463486
 C         0.866547        -0.767682         1.793778
 C         0.885899        -0.240935         0.399285
 C         2.470944        -0.536964         0.195088
 O         3.411670        -0.937099        -0.763256
 H         2.715327         2.468647        -1.104613
 H         1.038530         1.751171        -1.215482
 H         1.506671         2.948495         0.118826
 H         3.549047         1.326210         1.764784
 H         1.941041         1.535554         2.493991
 H         4.161338        -1.179540         2.267956
 H         0.624333        -1.887713         1.678378
 H         0.292940        -0.276346         2.612751
 H         0.114766        -0.037262        -0.364416
 H         3.279480        -1.836576        -1.060909
