19
Iteration:  3770
 C         1.760847         1.956260        -0.626176
 C         1.959997         1.008029         0.425205
 C         2.296381         1.047928         1.958454
 C         2.354649        -0.484134         1.805860
 O         3.166701        -1.277361         2.740858
 C         0.936586        -1.086838         1.431728
 C         1.039818        -0.325735         0.150262
 C         2.635970        -0.345998         0.210486
 O         3.593585        -0.782615        -0.640386
 H         2.627172         2.631978        -0.685697
 H         1.695360         1.368752        -1.533075
 H         0.944507         2.668331        -0.507510
 H         3.301165         1.332946         2.131935
 H         1.557816         1.162391         2.746431
 H         3.955893        -1.455021         2.211025
 H         0.990104        -2.149124         1.174547
 H        -0.068565        -0.980220         1.918707
 H         0.280412        -0.147006        -0.600684
 H         3.515673        -1.679829        -0.966656
