19
Iteration:  4425
 C         1.691080         2.138332        -0.523617
 C         1.876464         0.961952         0.354665
 C         2.284546         0.985821         1.835541
 C         2.398774        -0.548371         1.840912
 O         3.150305        -1.370935         2.652261
 C         0.929235        -1.037915         1.477687
 C         1.153299        -0.489352         0.060519
 C         2.551186        -0.380928         0.190154
 O         3.717385        -0.717387        -0.479790
 H         2.064731         2.934699         0.103504
 H         2.261624         2.025590        -1.379774
 H         0.660605         2.365532        -0.719873
 H         3.243375         1.453372         1.910335
 H         1.555201         1.436260         2.587722
 H         3.984923        -1.372937         2.168465
 H         0.850984        -2.089641         1.560252
 H         0.003007        -0.611378         1.987786
 H         0.225714        -0.369828        -0.616447
 H         3.432086        -0.900586        -1.426355
