19
Iteration:  4748
 C         1.683142         2.178058        -0.442789
 C         1.972868         0.867236         0.334361
 C         2.393003         1.012346         1.779637
 C         2.382652        -0.593323         1.762813
 O         3.108341        -1.184980         2.796042
 C         0.980925        -1.067089         1.532352
 C         1.042477        -0.436411         0.136620
 C         2.553046        -0.492879         0.113958
 O         3.679286        -0.674924        -0.711093
 H         1.296266         2.745944         0.411183
 H         2.662357         2.605999        -0.763868
 H         0.980665         2.061518        -1.285719
 H         3.484313         1.413029         1.917640
 H         1.742902         1.494910         2.528205
 H         2.656794        -2.061689         2.898147
 H         0.896909        -2.215710         1.492423
 H         0.318063        -0.655071         2.293113
 H         0.437339        -0.608171        -0.717126
 H         3.605528        -1.609780        -0.983808
