19
Iteration:  1902charge 0 multiplicity 1
 C         1.977865         2.089028        -0.581958
 C         1.917161         0.965439         0.426027
 C         2.425277         0.972895         1.877374
 C         2.474018        -0.627051         1.829890
 O         3.367448        -1.294407         2.640055
 C         0.913592        -0.917846         1.733961
 C         1.020921        -0.227823         0.341490
 C         2.469368        -0.418553         0.127668
 O         3.205823        -0.938640        -0.943555
 H         2.372924         1.733643        -1.600831
 H         0.937938         2.537880        -0.787798
 H         2.850260         2.817834        -0.242534
 H         3.336262         1.365379         2.161988
 H         1.681358         1.461081         2.603679
 H         3.868408        -0.674510         3.201038
 H         0.621250        -1.973135         1.421970
 H         0.411857        -0.502035         2.647301
 H         0.493692        -0.332489        -0.582629
 H         2.644623        -1.726574        -1.270900
