19
Iteration:  3486charge 0 multiplicity 1
 C         1.888287         2.179438        -0.516602
 C         1.948304         0.878875         0.334266
 C         2.377271         0.942508         1.773621
 C         2.392207        -0.523737         1.895859
 O         3.161213        -1.150150         2.882098
 C         0.977665        -1.042265         1.586459
 C         1.067182        -0.514527         0.174272
 C         2.514969        -0.493178         0.146580
 O         3.363329        -0.789542        -0.916020
 H         2.810486         2.721291        -0.266689
 H         1.981962         1.889684        -1.542019
 H         0.964118         2.754664        -0.572146
 H         3.385331         1.407824         1.760477
 H         1.757822         1.621767         2.411972
 H         3.587280        -0.422890         3.401374
 H         1.143683        -2.115806         1.549900
 H         0.075427        -1.055461         2.175574
 H         0.501251        -0.692217        -0.685527
 H         4.169810        -1.184909        -0.670973
