19
Iteration:  3547charge 0 multiplicity 1
 C         1.774808         2.039587        -0.726886
 C         1.980968         1.013827         0.364540
 C         2.142066         1.130150         1.930899
 C         2.391262        -0.575317         1.790328
 O         3.288452        -1.406697         2.420423
 C         0.946362        -0.978212         1.615953
 C         1.083485        -0.328472         0.271147
 C         2.590193        -0.361254         0.291291
 O         3.473067        -0.971170        -0.504375
 H         2.758216         2.679432        -0.785115
 H         1.893029         1.559273        -1.732726
 H         0.797564         2.586072        -0.685439
 H         3.068658         1.719054         2.160924
 H         1.247192         1.626608         2.436958
 H         4.174984        -0.964841         2.485889
 H         0.839324        -2.041807         1.369391
 H         0.165997        -0.522326         2.329669
 H         0.447144        -0.411586        -0.565123
 H         4.282779        -0.465895        -0.360183
