19
Iteration:  1296charge 0 multiplicity 1
 C         1.837755         1.857458        -0.830544
 C         1.993946         0.960275         0.436126
 C         2.394104         0.956456         1.958730
 C         2.472594        -0.528016         1.838859
 O         3.310849        -1.421514         2.596221
 C         0.958410        -0.790444         1.724947
 C         0.978320        -0.195498         0.372157
 C         2.470113        -0.417349         0.200862
 O         3.327005        -0.730227        -0.814916
 H         1.615523         1.163431        -1.624485
 H         0.927365         2.384966        -0.582215
 H         2.821617         2.322794        -0.943642
 H         3.340543         1.477228         1.924172
 H         1.696497         1.214159         2.850142
 H         4.242525        -1.089923         2.430971
 H         0.790976        -1.889068         1.669396
 H         0.525289        -0.343609         2.596140
 H         0.199326        -0.254346        -0.352544
 H         3.141488        -1.650097        -1.127477
