19
Iteration:  2009charge 0 multiplicity 1
 C         1.850111         2.117638        -0.748521
 C         1.949348         1.000430         0.381667
 C         2.368416         1.030236         1.906840
 C         2.440092        -0.536654         1.870637
 O         3.262935        -1.533342         2.432218
 C         0.938960        -0.805822         1.774301
 C         1.029789        -0.242984         0.382605
 C         2.509576        -0.427157         0.258808
 O         3.385023        -0.876631        -0.703709
 H         0.798957         2.251636        -0.933330
 H         2.406750         2.871817        -0.277255
 H         2.456651         1.938914        -1.574326
 H         3.420588         1.495639         1.809227
 H         1.746142         1.622308         2.626581
 H         4.095784        -1.562287         1.875920
 H         0.822459        -1.938432         1.821494
 H         0.212966        -0.405529         2.440387
 H         0.474466        -0.677366        -0.410370
 H         2.931800        -1.651244        -1.191708
