19
Iteration:   207charge 0 multiplicity 1
 C         1.800948         2.070465        -0.554341
 C         1.910817         0.832530         0.290699
 C         2.266334         0.934080         1.789050
 C         2.441028        -0.546371         1.828595
 O         3.336127        -1.191570         2.656471
 C         0.884278        -0.948462         1.566527
 C         1.005245        -0.329520         0.255881
 C         2.626312        -0.515908         0.272731
 O         3.469688        -0.790789        -0.771474
 H         0.914779         1.877279        -1.191801
 H         1.669476         2.924406         0.137698
 H         2.658147         2.232952        -1.238444
 H         3.107303         1.683490         1.765825
 H         1.528843         1.455408         2.383168
 H         3.551131        -0.595192         3.412728
 H         0.756786        -2.057316         1.643629
 H         0.198682        -0.502865         2.447718
 H         0.288388        -0.693255        -0.538780
 H         3.990584        -1.554260        -0.624427
