19
Iteration:  1336charge 0 multiplicity 1
 C         1.875169         2.066791        -0.650776
 C         1.858962         0.930250         0.348227
 C         2.529713         1.015131         1.791641
 C         2.481817        -0.495358         1.953517
 O         3.236700        -1.358313         2.715641
 C         1.034002        -0.968644         1.728736
 C         0.959193        -0.272026         0.343890
 C         2.481321        -0.475551         0.166021
 O         3.288130        -0.841575        -0.894317
 H         2.351908         2.065229        -1.651128
 H         0.804130         2.321831        -0.894713
 H         2.258691         3.036686        -0.212555
 H         3.543907         1.266211         1.498460
 H         2.278268         1.792692         2.549198
 H         4.154850        -1.099930         2.803936
 H         0.941345        -2.040026         1.540807
 H         0.097219        -0.486207         2.324648
 H         0.194171        -0.464355        -0.516050
 H         3.101180        -1.788428        -1.000478
