19
Iteration:  2258charge 0 multiplicity 1
 C         1.922628         2.100751        -0.693546
 C         2.038848         1.000783         0.447189
 C         2.342356         0.954329         1.835236
 C         2.410926        -0.650125         1.830379
 O         3.222146        -1.328231         2.713888
 C         0.974576        -1.021436         1.659187
 C         1.038880        -0.290225         0.280137
 C         2.501127        -0.379474         0.208141
 O         3.281486        -0.773416        -0.847938
 H         2.221298         1.516571        -1.535073
 H         0.911978         2.456409        -0.927745
 H         2.521412         3.020720        -0.437885
 H         3.467770         1.224926         2.005857
 H         1.774606         1.579739         2.658842
 H         4.048716        -0.749008         2.657167
 H         0.737374        -2.142778         1.544846
 H         0.376087        -0.699070         2.559329
 H         0.458247        -0.399711        -0.655210
 H         3.435449        -1.738841        -0.771597
