19
Iteration:  2642
 C         1.852102         2.217212        -0.529730
 C         1.894179         0.933758         0.366235
 C         2.173539         0.956413         1.820775
 C         2.366558        -0.601829         1.772266
 O         3.255039        -1.178919         2.647197
 C         0.905254        -1.020215         1.589932
 C         1.094315        -0.455390         0.184925
 C         2.623032        -0.370767         0.202148
 O         3.602788        -0.895354        -0.619330
 H         2.814066         2.436849        -1.109688
 H         1.032124         2.408347        -1.258955
 H         1.734139         2.985019         0.256112
 H         3.063422         1.571759         1.964687
 H         1.406385         1.315009         2.537356
 H         3.403010        -2.062757         2.316788
 H         1.008787        -2.162236         1.592627
 H         0.148960        -0.780065         2.274084
 H         0.355754        -0.424857        -0.664430
 H         3.181494        -0.992217        -1.471584
