19
Iteration:  4557charge 0 multiplicity 1
 C         1.751761         2.112998        -0.530969
 C         1.968291         0.960966         0.438895
 C         2.368405         1.024874         1.912991
 C         2.355855        -0.578219         1.835733
 O         3.100035        -1.362856         2.821269
 C         0.952596        -1.120529         1.513774
 C         1.144259        -0.352589         0.206242
 C         2.610154        -0.351422         0.098865
 O         3.499190        -0.747883        -0.940813
 H         0.669773         2.341263        -0.537129
 H         2.347057         3.001593        -0.319203
 H         2.075402         1.716210        -1.543983
 H         3.276574         1.513208         1.990474
 H         1.659272         1.560896         2.545875
 H         3.583875        -0.797702         3.442848
 H         0.988232        -2.139889         1.364697
 H         0.229087        -0.844113         2.316486
 H         0.546288        -0.372884        -0.679136
 H         3.989682        -1.544583        -0.625986
