19
Iteration:   939charge 0 multiplicity 1
 C         1.921100         1.915602        -0.645894
 C         1.996249         0.905627         0.405625
 C         2.392783         0.986839         1.865454
 C         2.445788        -0.548076         1.752588
 O         3.371206        -1.257024         2.524799
 C         0.931164        -0.841338         1.808740
 C         0.945484        -0.247495         0.358369
 C         2.428928        -0.501467         0.210504
 O         3.294189        -0.823710        -0.807779
 H         1.544539         1.490911        -1.617620
 H         1.404906         2.859073        -0.387133
 H         2.866663         2.315541        -1.097499
 H         3.338444         1.404098         1.946575
 H         1.640999         1.430940         2.591727
 H         4.067200        -0.734007         2.926459
 H         0.836753        -1.954606         1.729365
 H         0.407019        -0.467733         2.682547
 H         0.193295        -0.388583        -0.387248
 H         3.085451        -1.683464        -1.172737
