19
Iteration:  4846
 C         1.945544         2.173576        -0.542325
 C         1.854582         0.972191         0.369979
 C         2.217569         0.884601         1.914703
 C         2.363055        -0.565931         1.769423
 O         3.316326        -1.227986         2.625567
 C         0.914225        -1.063306         1.561799
 C         1.031771        -0.361019         0.141119
 C         2.460513        -0.385734         0.202038
 O         3.542982        -0.864974        -0.561162
 H         0.914854         2.538609        -0.735977
 H         2.634703         2.904178        -0.043774
 H         2.463439         1.908261        -1.491119
 H         3.171197         1.474734         2.122415
 H         1.473386         1.179413         2.589354
 H         3.957696        -1.439492         1.893432
 H         0.998089        -2.131973         1.359734
 H         0.103316        -0.816552         2.189934
 H         0.401340        -0.446751        -0.668787
 H         3.457025        -0.521692        -1.479564
