19
Iteration:   802charge 0 multiplicity 1
 C         1.739925         2.208194        -0.611214
 C         1.923983         1.005395         0.327296
 C         2.502299         0.989333         1.760259
 C         2.481842        -0.515068         1.778460
 O         3.228386        -1.237839         2.735840
 C         1.046702        -0.990229         1.674606
 C         1.010529        -0.371784         0.288330
 C         2.477557        -0.482948         0.144620
 O         3.384834        -1.034821        -0.733472
 H         1.495301         2.979534         0.089361
 H         2.702196         2.476590        -1.066241
 H         0.900933         2.161844        -1.280066
 H         3.602742         1.418287         1.748627
 H         1.894545         1.482690         2.527551
 H         3.940991        -0.635152         3.082586
 H         1.098234        -2.064510         1.602637
 H         0.208691        -0.939854         2.490278
 H         0.157714        -0.410354        -0.368380
 H         2.766204        -1.214293        -1.457982
