19
Iteration:  3415
 C         1.763014         2.108538        -0.595210
 C         2.013315         1.039860         0.404416
 C         2.323453         1.097995         1.871987
 C         2.360317        -0.513288         1.835026
 O         3.144809        -1.260748         2.727444
 C         0.953084        -1.107918         1.482905
 C         1.153055        -0.342397         0.206239
 C         2.582189        -0.349598         0.232429
 O         3.430482        -1.040368        -0.701632
 H         2.723727         2.365346        -1.114359
 H         0.978181         1.683243        -1.308763
 H         1.200801         2.989128        -0.264634
 H         3.288120         1.536679         2.104102
 H         1.577854         1.551234         2.481967
 H         4.103505        -1.025136         2.667606
 H         1.214943        -2.111485         1.205605
 H         0.142564        -1.329479         2.207988
 H         0.581399        -0.605457        -0.713710
 H         3.968538        -0.423600        -1.168452
