19
Iteration:  3585
 C         1.756850         2.137688        -0.522687
 C         1.891956         0.879239         0.309739
 C         2.396780         1.044162         1.833677
 C         2.399576        -0.526334         1.696680
 O         3.149933        -1.187482         2.651742
 C         0.943625        -0.968811         1.547654
 C         0.986176        -0.440760         0.168626
 C         2.498267        -0.498584         0.156242
 O         3.632433        -0.928355        -0.477027
 H         2.765300         2.616870        -0.525096
 H         1.399496         1.938926        -1.547318
 H         1.191618         2.977354        -0.068833
 H         3.439942         1.319533         1.818778
 H         1.841116         1.401464         2.663903
 H         4.031391        -1.261130         2.269858
 H         0.993462        -2.090171         1.523898
 H         0.228921        -0.610399         2.290956
 H         0.060987        -0.560163        -0.517537
 H         3.819709        -0.389408        -1.221317
