19
Iteration:  1490charge 0 multiplicity 1
 C         1.975350         1.944375        -0.655635
 C         1.843393         0.907826         0.405353
 C         2.629753         1.019717         1.841040
 C         2.462762        -0.487146         1.781386
 O         3.322506        -1.420684         2.542596
 C         0.909718        -0.844861         1.833717
 C         0.861436        -0.324657         0.399414
 C         2.369732        -0.412736         0.158252
 O         3.255722        -0.740451        -0.852094
 H         1.478912         2.835761        -0.208809
 H         3.055615         2.144121        -0.711311
 H         1.496418         1.460623        -1.542161
 H         3.613237         1.334935         1.428907
 H         2.293502         1.627568         2.719973
 H         4.267266        -1.267183         2.262758
 H         0.638220        -1.847184         1.972958
 H         0.476097        -0.299815         2.566522
 H         0.065933        -0.392361        -0.256294
 H         3.495132        -1.630827        -0.694185
