19
Iteration:  3990charge 0 multiplicity 1
 C         1.869686         2.171065        -0.486824
 C         1.929509         0.920880         0.375764
 C         2.088369         0.922801         1.859403
 C         2.400465        -0.599071         1.811916
 O         3.255806        -1.103277         2.801951
 C         0.967265        -1.168510         1.416513
 C         1.176078        -0.382693         0.102108
 C         2.720269        -0.294068         0.257885
 O         3.481790        -0.809684        -0.765350
 H         2.755802         2.725603        -0.541545
 H         1.578057         1.965312        -1.508990
 H         1.036984         2.706819        -0.169882
 H         2.862888         1.453634         2.430175
 H         1.087454         1.077559         2.436152
 H         2.602754        -1.623704         3.313682
 H         1.006099        -2.286375         1.310485
 H         0.165151        -0.897158         2.128107
 H         0.937540        -0.704374        -0.991494
 H         3.132296        -1.625155        -1.276751
