19
Iteration:  4423charge 0 multiplicity 1
 C         1.684312         2.137678        -0.515788
 C         1.875549         0.960592         0.340288
 C         2.293402         0.981642         1.845293
 C         2.413790        -0.544827         1.838010
 O         3.138704        -1.364188         2.673691
 C         0.929432        -1.047870         1.462549
 C         1.139586        -0.490460         0.051800
 C         2.530252        -0.391771         0.173547
 O         3.719509        -0.710152        -0.481099
 H         2.142083         2.953115         0.149715
 H         2.257054         2.072354        -1.435951
 H         0.652956         2.421196        -0.718780
 H         3.253302         1.456389         1.922492
 H         1.661095         1.451020         2.561062
 H         3.992323        -1.360564         2.191657
 H         0.874179        -2.148630         1.596229
 H         0.114971        -0.637737         2.005758
 H         0.258040        -0.356480        -0.579339
 H         3.444304        -0.908937        -1.358046
