19
Iteration:  2906charge 0 multiplicity 1
 C         1.813619         2.192675        -0.474432
 C         1.872603         0.878186         0.461653
 C         2.321732         1.053200         1.885588
 C         2.446865        -0.504414         1.799974
 O         3.173141        -1.192948         2.761027
 C         0.930002        -1.068280         1.519292
 C         1.164842        -0.402468         0.101563
 C         2.660114        -0.460748         0.187644
 O         3.430480        -0.947771        -0.864700
 H         2.797724         2.315727        -0.935683
 H         1.059458         2.117885        -1.209882
 H         1.584914         3.051207         0.065172
 H         3.253552         1.679173         1.945902
 H         1.529610         1.415644         2.564807
 H         2.526485        -1.700565         3.252013
 H         0.963524        -2.220458         1.385467
 H         0.166449        -0.695047         2.176373
 H         0.391770        -0.407838        -0.700552
 H         4.325408        -0.551375        -0.909125
