19
Iteration:  4258
 C         1.703969         2.020638        -0.633610
 C         1.948223         0.910116         0.374982
 C         2.121516         0.926364         1.969365
 C         2.436255        -0.533335         1.718045
 O         3.147137        -1.339583         2.601547
 C         0.973254        -0.999827         1.526702
 C         1.124818        -0.381498         0.124166
 C         2.646256        -0.321237         0.255223
 O         3.704471        -0.607780        -0.521867
 H         2.607476         2.269733        -1.219456
 H         0.913839         1.781698        -1.249977
 H         1.504159         2.840988        -0.055008
 H         2.997572         1.596893         2.216434
 H         1.163432         1.157385         2.584575
 H         3.415349        -2.126503         2.111909
 H         0.619011        -2.116696         1.504249
 H         0.203290        -0.525822         2.155312
 H         0.575062        -0.527162        -0.831515
 H         3.707733        -1.617815        -0.747873
