19
Iteration:  3156charge 0 multiplicity 1
 C         2.003421         2.073286        -0.583523
 C         1.813393         0.965550         0.317664
 C         2.204850         1.028656         1.884002
 C         2.366697        -0.439677         1.811837
 O         3.296198        -1.280907         2.361695
 C         0.964762        -1.051496         1.644955
 C         0.915133        -0.412319         0.241031
 C         2.508660        -0.398768         0.217525
 O         3.626213        -0.789932        -0.486962
 H         3.001746         2.053021        -1.113859
 H         1.260053         1.967736        -1.373292
 H         1.713489         3.042193        -0.171485
 H         3.117529         1.648955         1.768544
 H         1.727024         1.560320         2.687238
 H         2.876470        -1.775202         3.101900
 H         1.027495        -2.153304         1.370188
 H         0.213476        -1.025926         2.384209
 H         0.202407        -0.608149        -0.550427
 H         3.556938        -1.733003        -0.747904
