19
Iteration:  2416charge 0 multiplicity 1
 C         1.864030         1.994133        -0.553395
 C         1.876781         0.917175         0.417426
 C         2.452423         0.991654         1.913683
 C         2.398338        -0.550865         1.746374
 O         3.254737        -1.257886         2.441426
 C         0.853848        -0.955875         1.527437
 C         0.959819        -0.331528         0.236622
 C         2.478088        -0.390785         0.234405
 O         3.480716        -0.822450        -0.554881
 H         1.004802         2.688394        -0.627716
 H         2.710373         2.621010        -0.270350
 H         2.141110         1.587437        -1.492607
 H         3.487970         1.465224         1.867734
 H         1.930063         1.394867         2.793137
 H         4.154146        -0.837109         2.460859
 H         0.862664        -1.988436         1.363802
 H         0.098867        -0.698873         2.238808
 H         0.170471        -0.315898        -0.518219
 H         3.835820        -1.701037        -0.517484
