19
Iteration:  4233
 C         1.669128         2.123377        -0.611691
 C         1.895745         0.991148         0.451516
 C         2.217002         1.043146         1.969284
 C         2.321666        -0.555269         1.882619
 O         3.112262        -1.314242         2.840777
 C         0.963711        -1.183341         1.385979
 C         1.186287        -0.373350         0.104860
 C         2.665777        -0.327811         0.198791
 O         3.722383        -0.723146        -0.736038
 H         2.648889         2.410184        -1.005951
 H         1.027337         1.665352        -1.450046
 H         1.129374         3.011679        -0.126783
 H         3.280731         1.367158         2.018069
 H         1.568963         1.583931         2.622060
 H         3.769013        -1.788262         2.306277
 H         0.978764        -2.305215         1.044174
 H         0.049653        -1.118162         1.910830
 H         0.450825        -0.177303        -0.774213
 H         3.489369        -1.639711        -1.027438
