19
Iteration:  4778charge 0 multiplicity 1
 C         1.784360         2.075831        -0.564827
 C         1.890244         0.983443         0.471822
 C         2.388973         0.909807         1.847979
 C         2.369587        -0.668310         1.772067
 O         3.234583        -1.150363         2.826660
 C         0.907571        -1.199907         1.432148
 C         1.039429        -0.291136         0.171614
 C         2.508279        -0.298242         0.116449
 O         3.579322        -0.699052        -0.747310
 H         1.235427         2.921893        -0.167941
 H         2.831758         2.277204        -0.926472
 H         1.187562         1.745965        -1.467274
 H         3.451018         1.175679         1.817440
 H         1.809251         1.301715         2.650267
 H         2.910964        -1.964247         3.234348
 H         0.859044        -2.197446         1.152307
 H         0.192055        -1.047465         2.247814
 H         0.525200        -0.496814        -0.864192
 H         4.087749        -1.230930        -0.158286
