19
Iteration:   141
 C         1.767006         2.104146        -0.709021
 C         1.971975         0.971801         0.364709
 C         2.264270         1.049358         1.845753
 C         2.408373        -0.538718         1.863295
 O         3.298374        -1.280260         2.682139
 C         0.985130        -1.081422         1.574919
 C         1.044187        -0.336710         0.265301
 C         2.598815        -0.342533         0.247201
 O         3.363751        -0.982245        -0.669599
 H         1.977401         1.641148        -1.686613
 H         0.750419         2.520292        -0.674259
 H         2.472701         2.931212        -0.472157
 H         3.257350         1.568241         2.017428
 H         1.560228         1.507383         2.533319
 H         4.199292        -1.160969         2.370367
 H         0.902801        -2.155775         1.365290
 H         0.130701        -0.854949         2.224688
 H         0.322175        -0.279460        -0.511027
 H         4.123165        -0.421273        -1.030199
