19
Iteration:  1489
 C         1.976274         1.947127        -0.657376
 C         1.843489         0.901784         0.403178
 C         2.638342         1.017394         1.851079
 C         2.462339        -0.500418         1.781917
 O         3.322271        -1.414423         2.538367
 C         0.901408        -0.842097         1.838219
 C         0.855820        -0.328467         0.401928
 C         2.374699        -0.408491         0.156042
 O         3.257902        -0.736804        -0.847616
 H         1.491433         2.849936        -0.240227
 H         3.049397         2.126238        -0.742055
 H         1.473738         1.485330        -1.531380
 H         3.633931         1.378753         1.429178
 H         2.287106         1.614182         2.692571
 H         4.271263        -1.268147         2.239763
 H         0.627014        -1.845085         1.966024
 H         0.447550        -0.273606         2.569063
 H         0.072852        -0.437256        -0.269124
 H         3.492444        -1.635082        -0.715961
