19
Iteration:  3435
 C         1.784475         2.173672        -0.543059
 C         1.980734         0.959372         0.321460
 C         2.291796         0.949778         1.867134
 C         2.408817        -0.551872         1.858816
 O         3.136006        -1.141266         2.922622
 C         1.035480        -1.098160         1.478621
 C         1.186211        -0.401331         0.137397
 C         2.631019        -0.438684         0.169205
 O         3.323568        -0.954971        -0.879254
 H         2.692232         2.512778        -1.006993
 H         1.061984         2.009647        -1.402343
 H         1.277575         2.912706         0.100522
 H         3.265106         1.375585         2.106762
 H         1.600529         1.377445         2.613917
 H         3.964420        -0.659520         3.020942
 H         0.798621        -2.224753         1.481205
 H         0.243368        -0.652836         2.090492
 H         0.446154        -0.463796        -0.699536
 H         4.239501        -0.752472        -0.720125
