19
Iteration:    28
 C         1.726466         2.011162        -0.686410
 C         2.031934         0.988418         0.384722
 C         2.184090         1.031918         1.912560
 C         2.427784        -0.499192         1.865389
 O         3.363378        -1.288631         2.602331
 C         0.984606        -0.941828         1.602909
 C         1.098724        -0.392087         0.264653
 C         2.604351        -0.383858         0.262472
 O         3.409815        -0.881601        -0.824313
 H         2.017535         1.811098        -1.736618
 H         0.696973         2.377551        -0.908704
 H         2.131416         3.051995        -0.501288
 H         3.187551         1.393315         2.325887
 H         1.362399         1.459171         2.546554
 H         2.977636        -1.493426         3.451600
 H         0.783511        -2.037683         1.814238
 H         0.099530        -0.632348         2.294905
 H         0.447598        -0.378016        -0.635107
 H         4.012190        -1.584801        -0.628682
