19
Iteration:   841charge 0 multiplicity 1
 C         1.704629         2.071200        -0.577955
 C         1.975816         0.887043         0.346127
 C         2.456255         1.004167         1.839619
 C         2.512903        -0.503834         1.802593
 O         3.257244        -1.264875         2.729502
 C         0.992614        -0.819349         1.668550
 C         1.056044        -0.305754         0.278485
 C         2.564121        -0.473977         0.221991
 O         3.296594        -0.975355        -0.859191
 H         0.617178         2.457014        -0.404988
 H         2.405889         2.932799        -0.589525
 H         1.653741         1.753503        -1.664305
 H         3.413854         1.401628         1.902980
 H         1.835209         1.338140         2.686209
 H         4.150546        -0.979694         2.880490
 H         0.929521        -1.928878         1.484678
 H         0.266286        -0.390055         2.272788
 H         0.377208        -0.173320        -0.515941
 H         3.112838        -1.868956        -1.174240
