19
Iteration:  4450charge 0 multiplicity 1
 C         1.722222         2.053361        -0.666325
 C         1.909238         1.025389         0.402537
 C         2.070392         1.014084         2.040971
 C         2.403894        -0.557306         1.800509
 O         3.223291        -1.377601         2.453306
 C         0.879386        -1.062789         1.520845
 C         1.142490        -0.273902         0.160031
 C         2.632445        -0.327556         0.289418
 O         3.743127        -0.857680        -0.509791
 H         1.800918         2.923128        -0.096771
 H         2.570745         1.917309        -1.356843
 H         0.714330         2.032478        -1.094364
 H         3.030204         1.576982         2.305772
 H         1.129192         1.371835         2.681021
 H         4.048614        -1.341358         1.939898
 H         0.681417        -2.161226         1.478040
 H         0.221828        -0.610438         2.401039
 H         0.645696        -0.542198        -0.782903
 H         3.355936        -0.843318        -1.384284
