19
Iteration:  3874charge 0 multiplicity 1
 C         1.854620         2.050142        -0.657592
 C         1.878138         0.974049         0.405413
 C         2.188921         0.977777         1.971809
 C         2.372782        -0.543679         1.775726
 O         3.298054        -1.360340         2.676348
 C         0.914637        -1.067588         1.489159
 C         1.054464        -0.384310         0.156517
 C         2.572598        -0.275678         0.187238
 O         3.617413        -0.716424        -0.656241
 H         2.727639         2.779588        -0.681068
 H         1.761561         1.687842        -1.741576
 H         0.848000         2.568995        -0.491696
 H         3.085446         1.622307         2.190300
 H         1.396948         1.260217         2.610918
 H         2.974666        -1.050763         3.553483
 H         1.054581        -2.158352         1.209402
 H         0.036083        -0.968438         2.140854
 H         0.474195        -0.539202        -0.783339
 H         3.741785        -1.720161        -0.514297
