19
Iteration:  2981
 C         1.967774         2.086094        -0.584782
 C         1.730833         0.973491         0.468050
 C         2.297317         1.051649         1.855543
 C         2.385810        -0.488394         1.737908
 O         3.266526        -1.325170         2.386222
 C         0.947047        -1.063304         1.549646
 C         1.047520        -0.441624         0.190991
 C         2.489461        -0.320930         0.253644
 O         3.471603        -0.865087        -0.526255
 H         3.016583         2.527720        -0.471323
 H         1.838673         1.628679        -1.572463
 H         1.280290         2.923755        -0.423125
 H         3.328857         1.426683         1.812941
 H         1.794221         1.275300         2.749798
 H         3.606151        -0.799385         3.154079
 H         0.963624        -2.223919         1.553189
 H         0.213342        -0.628063         2.184165
 H         0.353635        -0.500412        -0.728807
 H         4.167743        -1.136498         0.075700
