19
Iteration:  2781
 C         1.873692         2.028894        -0.533931
 C         1.836629         0.991046         0.474149
 C         2.437114         1.052522         1.816721
 C         2.368030        -0.491341         1.759591
 O         3.294031        -1.270017         2.534730
 C         0.927705        -1.056694         1.548833
 C         0.986983        -0.396319         0.147370
 C         2.420923        -0.388731         0.180147
 O         3.534507        -0.812675        -0.580679
 H         2.338384         2.903262        -0.173184
 H         2.578673         1.706264        -1.321672
 H         0.891541         2.354093        -0.948652
 H         3.396071         1.537810         1.846169
 H         1.747587         1.371404         2.599340
 H         2.936230        -2.153372         2.723138
 H         0.808929        -2.093119         1.327552
 H         0.110355        -0.875224         2.332005
 H         0.332488        -0.408916        -0.790340
 H         4.162789        -0.869312         0.177264
