19
Iteration:   343
 C         1.723700         1.995904        -0.644323
 C         1.829973         0.939643         0.340283
 C         2.327352         0.991721         1.871223
 C         2.367553        -0.463612         1.805915
 O         3.224944        -1.130562         2.684386
 C         1.016045        -1.051930         1.619568
 C         1.065152        -0.434556         0.193572
 C         2.560655        -0.390712         0.255568
 O         3.567790        -0.863091        -0.720114
 H         1.011903         2.699622        -0.283526
 H         2.580289         2.554909        -0.956576
 H         1.218469         1.703123        -1.521632
 H         3.281057         1.359662         1.803835
 H         1.746465         1.515155         2.600388
 H         3.334092        -2.026292         2.284905
 H         1.044542        -2.158007         1.600596
 H         0.355552        -0.631234         2.456675
 H         0.428888        -0.562557        -0.624826
 H         4.401145        -0.572653        -0.333481
