19
Iteration:   280
 C         1.794795         2.047895        -0.595045
 C         1.929336         0.995023         0.391397
 C         2.195775         1.097804         1.889521
 C         2.446703        -0.519707         1.769563
 O         3.278020        -1.215050         2.673833
 C         0.992860        -1.039317         1.582055
 C         1.013791        -0.414627         0.242369
 C         2.579732        -0.368705         0.163328
 O         3.505985        -1.024063        -0.677484
 H         0.755891         1.873016        -0.864260
 H         2.055903         3.047798        -0.202904
 H         2.437562         1.681374        -1.513412
 H         3.165407         1.675638         2.202898
 H         1.323120         1.391596         2.526289
 H         4.007255        -0.530737         2.649729
 H         0.982959        -2.174688         1.399222
 H         0.253785        -0.816878         2.244285
 H         0.315287        -0.494732        -0.542186
 H         3.498291        -0.399509        -1.398932
