19
Iteration:    45
 C         1.746893         2.003757        -0.616664
 C         1.881531         0.930000         0.399809
 C         2.331908         1.099498         1.893094
 C         2.470934        -0.512483         1.838213
 O         3.326625        -1.233497         2.628139
 C         0.995341        -1.004227         1.584495
 C         1.061242        -0.282049         0.198123
 C         2.558962        -0.430483         0.199244
 O         3.414233        -0.907088        -0.780139
 H         2.354282         1.662332        -1.466293
 H         0.671402         2.054903        -0.843695
 H         2.111347         2.922056        -0.202040
 H         3.139295         1.779427         1.932067
 H         1.564401         1.404941         2.632750
 H         2.924365        -1.661086         3.371335
 H         0.969585        -2.042316         1.322816
 H         0.241173        -0.774328         2.321132
 H         0.293942        -0.414782        -0.643089
 H         4.092636        -1.309521        -0.202509
