19
Iteration:  4211
 C         1.766865         2.186944        -0.424410
 C         1.956077         0.966725         0.362327
 C         2.269371         0.892225         1.808619
 C         2.393206        -0.621363         1.796671
 O         3.035263        -1.124743         2.939239
 C         1.043797        -1.188503         1.349441
 C         1.151308        -0.419178         0.077902
 C         2.599044        -0.363655         0.199985
 O         3.550954        -0.722002        -0.721582
 H         2.627233         2.847549        -0.448500
 H         1.513831         1.864963        -1.500123
 H         0.884846         2.806589        -0.091939
 H         3.278749         1.257357         2.126064
 H         1.473244         1.219527         2.470410
 H         3.986703        -1.313860         2.822466
 H         1.338155        -2.311212         1.075297
 H         0.275100        -1.312295         2.051504
 H         0.664551        -0.500867        -0.953369
 H         3.191515        -1.420000        -1.315026
