19
Iteration:  3963charge 0 multiplicity 1
 C         1.870268         2.103440        -0.571975
 C         1.901614         0.901419         0.411543
 C         2.175104         1.019872         1.908456
 C         2.347082        -0.594420         1.823300
 O         3.202373        -1.150100         2.753284
 C         0.938903        -1.140525         1.460448
 C         1.066853        -0.428118         0.149886
 C         2.619773        -0.371612         0.150633
 O         3.640929        -0.722041        -0.694699
 H         2.610597         2.936044        -0.213759
 H         1.954773         1.864146        -1.686366
 H         0.765696         2.535464        -0.451658
 H         3.106699         1.487194         2.253357
 H         1.372803         1.309352         2.539179
 H         3.305256        -2.051766         2.368874
 H         1.002977        -2.216767         1.339079
 H         0.084227        -0.844788         2.162480
 H         0.303581        -0.216099        -0.526217
 H         3.745576        -1.701115        -0.950673
