19
Iteration:  3523charge 0 multiplicity 1
 C         1.817436         1.970464        -0.712378
 C         1.955210         1.042789         0.444572
 C         2.208814         1.004468         1.952734
 C         2.402765        -0.496052         1.809272
 O         3.229384        -1.305569         2.642382
 C         0.990396        -1.008947         1.578605
 C         1.039300        -0.248912         0.231835
 C         2.579033        -0.359238         0.208645
 O         3.444221        -0.928926        -0.738770
 H         2.557842         2.732407        -0.798518
 H         2.212488         1.290858        -1.508615
 H         0.825456         2.321151        -0.985555
 H         3.090280         1.555299         2.371195
 H         1.285521         1.235787         2.604964
 H         4.131298        -0.965431         2.611074
 H         1.284224        -2.079466         1.352154
 H         0.209188        -0.849121         2.315449
 H         0.243136        -0.200771        -0.582762
 H         4.232242        -1.126711        -0.241905
