19
Iteration:  2657charge 0 multiplicity 1
 C         1.845035         2.169830        -0.404472
 C         1.864084         0.926473         0.343427
 C         2.164011         1.033509         1.927754
 C         2.417519        -0.508228         1.771385
 O         3.203592        -1.103310         2.710653
 C         0.983540        -1.145230         1.529378
 C         0.990853        -0.321363         0.191809
 C         2.617492        -0.438031         0.149267
 O         3.677722        -0.976549        -0.776217
 H         2.865296         2.142745        -0.974831
 H         1.034299         2.042258        -1.190324
 H         1.776873         3.149425         0.116980
 H         3.148544         1.454432         2.223500
 H         1.295946         1.336825         2.489967
 H         3.252510        -2.068844         2.592735
 H         0.671986        -2.167988         1.394066
 H         0.293265        -0.581315         2.357116
 H         0.448752        -0.620885        -0.665482
 H         3.302959        -0.991647        -1.639070
