19
Iteration:  3591
 C         1.787625         2.140390        -0.476617
 C         1.919061         0.923675         0.324936
 C         2.388821         0.981633         1.717494
 C         2.362955        -0.513945         1.737946
 O         3.132374        -1.161748         2.702768
 C         0.959536        -1.017812         1.587482
 C         0.963798        -0.423607         0.159324
 C         2.519972        -0.510217         0.123745
 O         3.643400        -0.905366        -0.514494
 H         2.745857         2.692542        -0.741156
 H         1.338923         1.842019        -1.438229
 H         1.091789         2.828190         0.063605
 H         3.469955         1.252788         1.892825
 H         1.681733         1.352463         2.531424
 H         4.026120        -1.387995         2.343140
 H         1.021576        -2.085914         1.515755
 H         0.282198        -0.500137         2.343742
 H         0.146049        -0.428242        -0.485822
 H         3.732317        -0.442352        -1.367085
