19
Iteration:  2631charge 0 multiplicity 1
 C         1.846186         2.195652        -0.535340
 C         1.905975         0.992829         0.287726
 C         2.243214         0.948166         1.812640
 C         2.386286        -0.513515         1.833690
 O         3.324809        -1.250536         2.642646
 C         0.933872        -1.055328         1.528174
 C         1.098135        -0.457367         0.116954
 C         2.490934        -0.396831         0.232492
 O         3.529122        -0.822925        -0.484846
 H         2.812410         2.389634        -1.131729
 H         0.961451         2.084492        -1.204729
 H         1.687586         3.105797         0.087641
 H         3.239409         1.285776         2.078538
 H         1.480721         1.287045         2.536779
 H         3.501285        -2.065856         2.151635
 H         0.795379        -2.194662         1.468757
 H         0.123611        -0.617576         2.042780
 H         0.414601        -0.557710        -0.769642
 H         3.245658        -1.083488        -1.333866
