19
Iteration:   521
 C         1.711889         2.034230        -0.727682
 C         1.882826         0.927351         0.346436
 C         2.360330         1.007503         1.913412
 C         2.421696        -0.526925         1.782690
 O         3.216623        -1.243002         2.619628
 C         0.944949        -1.053226         1.602733
 C         0.938908        -0.422053         0.239416
 C         2.516044        -0.455417         0.171649
 O         3.650346        -0.808353        -0.577514
 H         0.725193         2.420146        -0.638276
 H         2.363516         2.819022        -0.547291
 H         1.911835         1.584481        -1.719650
 H         3.319863         1.528896         1.975474
 H         1.813604         1.435136         2.714977
 H         4.121649        -0.939744         2.695910
 H         0.928725        -2.233573         1.844130
 H         0.215352        -0.585022         2.417228
 H         0.251404        -0.319342        -0.557501
 H         3.928823        -0.018695        -1.045908
