19
Iteration:  2953
 C         1.887443         2.098576        -0.705050
 C         1.957251         0.967861         0.408125
 C         2.206985         1.092896         1.863073
 C         2.369013        -0.575759         1.796278
 O         3.327418        -1.381957         2.463996
 C         0.914033        -1.088823         1.532565
 C         0.987821        -0.253797         0.315044
 C         2.490127        -0.376866         0.220894
 O         3.554458        -0.895682        -0.573102
 H         2.892352         2.325821        -1.038937
 H         1.118446         1.875927        -1.476207
 H         1.373278         2.927733        -0.165802
 H         3.202572         1.472270         2.188585
 H         1.424560         1.381770         2.637002
 H         3.291721        -1.103837         3.398110
 H         0.860060        -2.126965         1.213999
 H         0.125548        -0.750068         2.262267
 H         0.332290        -0.463723        -0.502306
 H         4.293153        -0.457658        -0.195978
