19
Iteration:  3554charge 0 multiplicity 1
 C         1.770930         2.095284        -0.671437
 C         1.905053         1.019520         0.387428
 C         2.171184         1.112482         1.807607
 C         2.353913        -0.562745         1.798469
 O         3.313508        -1.424867         2.432237
 C         0.913913        -0.945384         1.610172
 C         1.124837        -0.355814         0.231625
 C         2.588357        -0.349871         0.312446
 O         3.499432        -0.985280        -0.463472
 H         2.669234         2.578426        -0.767231
 H         1.771944         1.503155        -1.591735
 H         0.918284         2.714302        -0.774179
 H         3.159728         1.514033         2.051964
 H         1.473759         1.636151         2.512765
 H         4.167209        -0.923861         2.436819
 H         0.793857        -2.070124         1.607945
 H         0.192268        -0.655652         2.280216
 H         0.368174        -0.519021        -0.626472
 H         4.308887        -0.372859        -0.586192
