19
Iteration:  3100
 C         1.774141         2.065085        -0.528843
 C         1.994436         0.937049         0.388903
 C         2.342117         0.963732         1.961864
 C         2.403666        -0.584890         1.788267
 O         3.097890        -1.217500         2.832151
 C         0.996841        -1.011505         1.533558
 C         1.080799        -0.315681         0.194401
 C         2.539808        -0.465317         0.133555
 O         3.530627        -0.805476        -0.931650
 H         2.670925         2.701004        -0.382758
 H         1.869059         1.654393        -1.532803
 H         0.926870         2.711474        -0.253710
 H         3.219973         1.485748         2.378587
 H         1.417224         1.201698         2.468025
 H         3.956030        -0.780757         2.841730
 H         0.861587        -2.092390         1.491616
 H         0.300831        -0.554085         2.246815
 H         0.162068        -0.215212        -0.468277
 H         3.748225        -1.788722        -1.106876
