19
Iteration:  3069charge 0 multiplicity 1
 C         1.735939         2.170247        -0.621998
 C         1.926700         1.001507         0.351386
 C         2.405976         1.070053         1.841934
 C         2.415182        -0.553297         1.891050
 O         3.036337        -1.359176         2.951204
 C         1.059802        -1.102441         1.534585
 C         1.171536        -0.366030         0.154127
 C         2.683936        -0.372858         0.260021
 O         3.362226        -0.815291        -0.880842
 H         2.392604         2.958002        -0.121643
 H         2.055713         1.954834        -1.642110
 H         0.694217         2.469642        -0.840875
 H         3.442018         1.435248         1.936820
 H         1.740623         1.524254         2.513714
 H         3.985324        -1.495160         2.677178
 H         1.217742        -2.235500         1.271841
 H         0.320327        -0.805839         2.210893
 H         0.835241        -0.744206        -0.868381
 H         2.914411        -1.416227        -1.429234
