19
Iteration:   527charge 0 multiplicity 1
 C         1.740660         2.050121        -0.703960
 C         1.824474         0.874153         0.319257
 C         2.377902         0.991353         1.931162
 C         2.395937        -0.496875         1.795607
 O         3.236996        -1.231741         2.590736
 C         0.985047        -1.084762         1.641291
 C         0.970279        -0.417809         0.182249
 C         2.493767        -0.456247         0.191926
 O         3.618230        -0.814963        -0.557668
 H         0.625018         2.321122        -0.734847
 H         2.460467         2.898001        -0.324031
 H         2.046862         1.676760        -1.694596
 H         3.469301         1.315885         1.969466
 H         1.772225         1.540686         2.783772
 H         4.030130        -0.619827         2.642975
 H         0.801962        -2.069693         1.799045
 H         0.384096        -0.395981         2.161761
 H         0.132310        -0.410195        -0.660737
 H         3.907847        -0.025265        -1.004259
