19
Iteration:  4021
 C         1.871047         2.212523        -0.438014
 C         1.861780         1.008157         0.393159
 C         2.141344         0.981080         1.945774
 C         2.350839        -0.534169         1.836477
 O         3.151701        -1.155900         2.823412
 C         1.083035        -1.257088         1.371361
 C         1.124703        -0.404618         0.082621
 C         2.617703        -0.359068         0.130986
 O         3.587348        -0.888205        -0.798239
 H         2.854735         2.656820        -0.842856
 H         1.298086         2.036442        -1.381872
 H         1.230731         3.118065         0.005438
 H         3.023203         1.479607         2.279813
 H         1.199340         1.346689         2.482792
 H         3.203826        -0.750897         3.712112
 H         1.490961        -2.242557         1.299271
 H         0.143239        -1.402587         2.089049
 H         0.628528        -0.614701        -0.954289
 H         3.275093        -1.663556        -1.206502
