19
Iteration:  2106
 C         1.891422         2.167036        -0.491519
 C         1.886968         0.921599         0.415351
 C         2.412050         1.042526         1.803037
 C         2.543740        -0.488978         1.755568
 O         3.150180        -1.337116         2.712926
 C         1.010548        -0.947992         1.730524
 C         1.085036        -0.295493         0.332523
 C         2.561175        -0.565084         0.151260
 O         3.302139        -0.931786        -0.995402
 H         2.223528         3.068785         0.148671
 H         2.483944         1.890517        -1.419696
 H         0.817204         2.545219        -0.869240
 H         3.444144         1.533281         1.847202
 H         1.764166         1.482832         2.491862
 H         3.353658        -0.627032         3.382323
 H         1.017456        -2.064391         1.758358
 H         0.328180        -0.568306         2.449032
 H         0.610740        -0.256268        -0.599222
 H         2.798821        -1.698945        -1.284068
