19
Iteration:  1261
 C         1.933431         2.028992        -0.627390
 C         1.904286         0.938937         0.349332
 C         2.511055         1.052001         1.800549
 C         2.414491        -0.474683         1.757239
 O         3.264317        -1.296283         2.520458
 C         0.976986        -0.993778         1.752760
 C         0.924841        -0.408207         0.360902
 C         2.409852        -0.419463         0.201901
 O         3.322351        -0.828774        -0.664751
 H         1.288643         1.946872        -1.495085
 H         1.800684         3.025094        -0.236211
 H         2.872116         2.249279        -1.161259
 H         3.471654         1.446974         1.637146
 H         2.150591         1.692492         2.707877
 H         4.171325        -0.970773         2.291965
 H         1.021946        -2.080916         1.716084
 H         0.312387        -0.738984         2.657390
 H         0.040755        -0.424135        -0.382843
 H         3.344608        -1.814925        -0.814368
