19
Iteration:  1196charge 0 multiplicity 1
 C         1.691067         2.154787        -0.552167
 C         2.113406         0.969056         0.386233
 C         2.479825         1.062562         1.951455
 C         2.484227        -0.517410         1.738706
 O         3.281992        -1.208547         2.599893
 C         0.992386        -0.921981         1.661627
 C         1.081352        -0.263098         0.252041
 C         2.526449        -0.524899         0.179047
 O         3.222972        -1.118516        -0.817587
 H         0.845002         1.739814        -1.090782
 H         1.546788         3.044788         0.072356
 H         2.494634         2.284929        -1.330877
 H         3.431947         1.599316         2.086977
 H         1.724673         1.525461         2.787384
 H         3.809300        -0.534972         3.083063
 H         0.916063        -1.967440         1.474986
 H         0.190802        -0.611154         2.293389
 H         0.322122        -0.324156        -0.637927
 H         2.989703        -2.021972        -0.910722
