19
Iteration:  4956charge 0 multiplicity 1
 C         1.831254         2.185059        -0.524859
 C         2.024362         1.001730         0.424996
 C         2.383127         0.850417         1.851266
 C         2.389681        -0.602908         1.780276
 O         3.137418        -1.286620         2.780817
 C         0.940764        -1.162538         1.448209
 C         1.021979        -0.359696         0.157760
 C         2.522365        -0.374424         0.174266
 O         3.450400        -0.808938        -0.684624
 H         1.153538         3.050371        -0.259092
 H         2.827841         2.745647        -0.709463
 H         1.637377         1.933524        -1.589357
 H         3.509281         1.237491         2.016202
 H         1.671761         1.385128         2.441064
 H         3.816244        -0.662530         3.022653
 H         0.977535        -2.270788         1.220945
 H         0.137600        -0.969152         2.106473
 H         0.337129        -0.301597        -0.767618
 H         3.928283        -0.067051        -1.001676
