19
Iteration:  2737charge 0 multiplicity 1
 C         1.837548         2.069157        -0.516814
 C         1.962307         0.938213         0.409114
 C         2.213801         0.963360         1.881003
 C         2.451991        -0.588488         1.721883
 O         3.238865        -1.234008         2.724803
 C         0.931682        -0.960003         1.562190
 C         1.036375        -0.308060         0.199571
 C         2.569905        -0.399323         0.144314
 O         3.554439        -0.796676        -0.737181
 H         2.398700         2.948694        -0.362571
 H         2.168906         1.668018        -1.473844
 H         0.755339         2.315399        -0.648215
 H         3.091741         1.572542         2.067559
 H         1.393148         1.370541         2.506363
 H         3.294871        -2.199859         2.655552
 H         0.781353        -2.054587         1.584006
 H         0.179955        -0.555553         2.340759
 H         0.320065        -0.395733        -0.653716
 H         3.660638        -1.729954        -0.877040
