19
Iteration:  1783charge 0 multiplicity 1
 C         1.779532         2.210406        -0.535260
 C         1.944967         1.025970         0.424522
 C         2.626103         0.994218         1.781232
 C         2.537669        -0.513082         1.730892
 O         3.279509        -1.433332         2.618600
 C         0.948059        -0.939433         1.660802
 C         0.945326        -0.245477         0.325105
 C         2.457520        -0.342106         0.153366
 O         3.238051        -1.065345        -0.743006
 H         2.744672         2.731847        -0.630083
 H         1.594206         1.717332        -1.506629
 H         0.951204         2.960483        -0.377636
 H         3.665549         1.377141         1.576478
 H         2.132824         1.564563         2.621680
 H         4.103536        -0.999035         2.894857
 H         0.876914        -1.990506         1.517860
 H         0.310275        -0.609778         2.477677
 H         0.261202        -0.088068        -0.558466
 H         2.974266        -1.963583        -0.759711
