19
Iteration:  1800charge 0 multiplicity 1
 C         1.798928         2.080844        -0.510294
 C         1.938215         0.940004         0.407355
 C         2.589651         1.079442         1.821918
 C         2.405713        -0.606285         1.800225
 O         3.265483        -1.394947         2.506280
 C         0.952580        -0.828002         1.723711
 C         0.958129        -0.140623         0.334827
 C         2.420283        -0.473412         0.126158
 O         3.409835        -1.018430        -0.773162
 H         2.752634         2.532269        -0.896178
 H         1.124217         2.043592        -1.410938
 H         1.234667         2.849453         0.015244
 H         3.654632         1.229814         1.751332
 H         2.152189         1.707325         2.598041
 H         4.151656        -0.972304         2.467664
 H         0.665699        -1.950439         1.696684
 H         0.313949        -0.350355         2.513205
 H         0.003878        -0.192195        -0.170407
 H         3.150348        -1.900071        -0.992245
