19
Iteration:  3313
 C         1.886697         2.090028        -0.710510
 C         1.959120         0.981367         0.324767
 C         2.273034         0.944808         1.928448
 C         2.402037        -0.584483         1.845517
 O         3.239944        -1.257989         2.726557
 C         0.947013        -1.055716         1.610792
 C         1.001092        -0.268871         0.251080
 C         2.573563        -0.273233         0.173066
 O         3.482313        -0.825350        -0.728572
 H         2.313195         3.043865        -0.343696
 H         2.517248         1.850386        -1.597208
 H         0.852587         2.400779        -0.836777
 H         3.208368         1.357963         2.267221
 H         1.476466         1.171822         2.643256
 H         3.476628        -2.121053         2.386830
 H         0.886438        -2.180187         1.286889
 H         0.193202        -0.881905         2.310628
 H         0.375020        -0.445775        -0.647535
 H         3.409217        -1.839102        -0.756188
