19
Iteration:  1971charge 0 multiplicity 1
 C         1.767362         2.093534        -0.506592
 C         2.003434         0.965180         0.384798
 C         2.559317         0.950706         1.852726
 C         2.485798        -0.529984         1.716053
 O         3.218320        -1.332948         2.674517
 C         0.982996        -0.880978         1.657502
 C         0.966215        -0.188745         0.270116
 C         2.395624        -0.475336         0.118143
 O         3.365219        -0.942828        -0.753914
 H         0.868650         2.161633        -1.173136
 H         1.754845         3.104508         0.055836
 H         2.643138         2.173775        -1.346421
 H         3.624495         1.224918         1.813381
 H         2.096513         1.312143         2.777803
 H         4.140760        -1.262653         2.447027
 H         0.796894        -1.898255         1.440726
 H         0.330192        -0.449897         2.466803
 H         0.074954        -0.308985        -0.413587
 H         3.171490        -1.843093        -0.955911
