19
Iteration:  4263charge 0 multiplicity 1
 C         1.754106         2.021360        -0.629931
 C         1.931712         0.893837         0.340618
 C         2.092858         0.965655         1.973933
 C         2.452270        -0.556682         1.754042
 O         3.222219        -1.342426         2.575750
 C         0.933894        -0.998690         1.530379
 C         1.108655        -0.455262         0.090482
 C         2.583035        -0.362605         0.233905
 O         3.717268        -0.581371        -0.467096
 H         2.568644         2.369187        -1.279790
 H         0.839001         1.922300        -1.356037
 H         1.602601         2.998043         0.015417
 H         2.954621         1.548430         2.217010
 H         1.257174         1.258787         2.607037
 H         3.302450        -2.219796         2.128194
 H         0.574633        -1.965718         1.434661
 H         0.203527        -0.426189         2.224005
 H         0.444048        -0.295930        -0.764416
 H         3.730229        -1.476720        -0.723462
