19
Iteration:  4714charge 0 multiplicity 1
 C         1.701935         2.122267        -0.546613
 C         1.900012         0.986344         0.388156
 C         2.166794         1.046707         2.023963
 C         2.402745        -0.551473         1.901766
 O         3.231312        -1.291841         2.735369
 C         0.978315        -0.983901         1.472149
 C         1.174953        -0.404858         0.093314
 C         2.658788        -0.394567         0.219084
 O         3.608379        -0.898098        -0.785695
 H         0.967967         2.896978        -0.240162
 H         2.634321         2.772945        -0.530803
 H         1.412655         2.045772        -1.629228
 H         3.118369         1.712100         2.174681
 H         1.381208         1.465319         2.657408
 H         3.459413        -2.147566         2.279520
 H         0.658442        -2.079940         1.415323
 H         0.205527        -0.446375         2.034803
 H         0.663326        -0.577008        -0.909381
 H         3.046283        -1.433884        -1.304992
