19
Iteration:  3686
 C         1.945385         2.097231        -0.593589
 C         1.876434         0.936905         0.360893
 C         2.285362         0.943336         1.861210
 C         2.382339        -0.588741         1.756854
 O         3.359368        -1.147320         2.685231
 C         0.908536        -1.082468         1.566658
 C         0.947919        -0.397298         0.146757
 C         2.485479        -0.389944         0.168760
 O         3.540377        -0.765945        -0.664956
 H         2.680820         2.799948        -0.226997
 H         2.289484         1.940814        -1.649348
 H         0.922432         2.511184        -0.603765
 H         3.239672         1.383577         2.193700
 H         1.587288         1.455720         2.553624
 H         2.823538        -1.565744         3.405819
 H         0.772209        -2.202548         1.333897
 H         0.188770        -0.683320         2.224474
 H         0.213351        -0.476475        -0.613431
 H         3.688964        -1.753870        -0.404030
