19
Iteration:  1128
 C         1.928348         1.934705        -0.561840
 C         1.895844         0.891447         0.435278
 C         2.479377         1.020974         1.770994
 C         2.397464        -0.557650         1.812534
 O         3.340290        -1.255003         2.642986
 C         0.877940        -0.787123         1.826699
 C         0.981541        -0.338776         0.373423
 C         2.439053        -0.496330         0.149317
 O         3.320032        -0.792323        -0.948410
 H         2.255189         1.430104        -1.505194
 H         0.946576         2.431550        -0.619411
 H         2.750265         2.609177        -0.308846
 H         3.489217         1.336809         1.678905
 H         1.815188         1.643056         2.592233
 H         4.166514        -1.269197         2.076605
 H         0.652278        -1.809240         1.820050
 H         0.420051        -0.284400         2.665740
 H         0.323039        -0.503891        -0.393723
 H         3.385420        -1.812974        -1.043595
