19
Iteration:  2246charge 0 multiplicity 1
 C         1.940510         2.026437        -0.699555
 C         1.949268         0.971804         0.379829
 C         2.408846         0.923316         1.935389
 C         2.360554        -0.641965         1.820136
 O         3.322465        -1.295081         2.638030
 C         0.906001        -1.021899         1.681398
 C         0.909691        -0.150727         0.317953
 C         2.487443        -0.402328         0.175475
 O         3.404149        -0.815585        -0.794748
 H         2.494882         1.785460        -1.564624
 H         0.917089         2.269971        -0.971916
 H         2.500951         2.963266        -0.437636
 H         3.422049         1.425660         2.093657
 H         1.540419         1.304557         2.639796
 H         4.090879        -0.696874         2.656926
 H         0.802010        -2.051997         1.238533
 H         0.189552        -0.827439         2.536737
 H         0.167345        -0.082566        -0.464450
 H         3.470237        -1.759171        -0.791782
