19
Iteration:  4922
 C         1.681200         2.102416        -0.461706
 C         1.942579         0.990477         0.413251
 C         2.262307         0.967956         1.881838
 C         2.420955        -0.527623         1.839023
 O         3.106422        -1.462157         2.604203
 C         0.925135        -0.893939         1.539469
 C         1.187559        -0.362452         0.178010
 C         2.664572        -0.310166         0.213663
 O         3.545924        -0.892378        -0.863058
 H         0.642351         2.451043        -0.667716
 H         2.385646         2.914635        -0.110962
 H         2.050008         1.616674        -1.392004
 H         3.271344         1.544277         2.181814
 H         1.391289         1.300425         2.418815
 H         3.677870        -1.083561         3.268187
 H         0.763468        -1.952445         1.768929
 H         0.280199        -0.286190         2.144727
 H         0.523003        -0.287120        -0.648834
 H         4.335410        -1.138241        -0.322145
