19
Iteration:  2742charge 0 multiplicity 1
 C         1.816005         2.110472        -0.546493
 C         1.955000         0.910646         0.367858
 C         2.241234         0.952531         1.887282
 C         2.428398        -0.653979         1.767313
 O         3.252934        -1.209427         2.683246
 C         0.884391        -0.944107         1.603248
 C         1.064526        -0.289829         0.195391
 C         2.552995        -0.440339         0.179691
 O         3.559908        -0.762788        -0.738385
 H         2.441895         3.038008        -0.306678
 H         2.167780         1.680711        -1.509315
 H         0.795180         2.324213        -0.825478
 H         3.150574         1.546957         2.153312
 H         1.447700         1.269155         2.596189
 H         3.214895        -2.190258         2.569183
 H         0.861963        -2.064154         1.469660
 H         0.233442        -0.544094         2.318251
 H         0.448726        -0.453268        -0.671375
 H         3.700016        -1.768141        -0.608014
