19
Iteration:  2423charge 0 multiplicity 1
 C         1.891014         2.013990        -0.561392
 C         1.855627         0.967038         0.396448
 C         2.480583         0.964630         1.888858
 C         2.359637        -0.529600         1.735831
 O         3.270190        -1.291432         2.535881
 C         0.872968        -0.979286         1.573195
 C         0.955284        -0.334320         0.191262
 C         2.465853        -0.394692         0.217344
 O         3.493947        -0.778277        -0.584201
 H         0.933505         2.592536        -0.516130
 H         2.808351         2.639519        -0.521972
 H         1.838343         1.640207        -1.645025
 H         3.606690         1.227751         1.987593
 H         1.735261         1.210209         2.710189
 H         4.114556        -0.804813         2.594535
 H         1.022194        -2.162826         1.557995
 H         0.063179        -0.675263         2.352021
 H         0.339183        -0.212213        -0.660517
 H         3.507844        -1.811564        -0.629365
