19
Iteration:   496
 C         1.648959         1.937607        -0.692931
 C         1.885560         0.945106         0.331209
 C         2.236234         1.071791         1.816803
 C         2.405576        -0.538599         1.884165
 O         3.188118        -1.348901         2.719726
 C         1.059096        -1.037277         1.562391
 C         1.103270        -0.301348         0.248438
 C         2.646650        -0.356688         0.230686
 O         3.552333        -0.818791        -0.636182
 H         0.951774         2.651537        -0.320570
 H         2.553457         2.504632        -0.977179
 H         1.277318         1.387841        -1.555875
 H         3.162948         1.536710         1.994734
 H         1.523074         1.685850         2.506518
 H         4.085290        -1.436600         2.393216
 H         0.911533        -2.114035         1.499888
 H         0.323485        -0.638711         2.300894
 H         0.439869        -0.445305        -0.739397
 H         3.872538        -0.085950        -1.241699
