19
Iteration:  4592
 C         1.751281         2.047325        -0.652137
 C         1.896042         1.020019         0.475477
 C         2.446441         0.942775         1.878811
 C         2.440939        -0.617139         1.787819
 O         3.071868        -1.365173         2.758377
 C         0.973080        -1.144771         1.504052
 C         1.050349        -0.210156         0.215013
 C         2.572715        -0.378702         0.174037
 O         3.543877        -0.668154        -0.717614
 H         0.772488         2.051679        -1.053961
 H         1.930254         3.123741        -0.446643
 H         2.346416         1.879064        -1.579332
 H         3.495092         1.257307         1.805280
 H         1.851820         1.408291         2.673683
 H         3.769551        -0.758460         3.067325
 H         1.020971        -2.189432         1.242632
 H         0.240229        -1.062005         2.367615
 H         0.501399        -0.448393        -0.683901
 H         3.418767        -1.618926        -0.880643
