19
Iteration:  3471charge 0 multiplicity 1
 C         1.918427         2.126867        -0.431657
 C         1.921013         0.833767         0.285597
 C         2.323469         1.041965         1.759284
 C         2.383324        -0.511935         1.895402
 O         3.101867        -1.101752         2.909317
 C         1.026235        -1.109971         1.628905
 C         1.057908        -0.498118         0.219190
 C         2.557351        -0.510620         0.030036
 O         3.443255        -0.841836        -1.045283
 H         2.821060         2.791915        -0.119566
 H         1.798171         2.109416        -1.563041
 H         1.157413         2.754766         0.119481
 H         3.363203         1.358272         1.829739
 H         1.634897         1.464143         2.455937
 H         3.332207        -0.455752         3.572677
 H         0.963793        -2.205442         1.620285
 H         0.381955        -0.435839         2.310939
 H         0.119724        -0.585384        -0.391060
 H         4.217809        -1.153048        -0.561945
