19
Iteration:  2916charge 0 multiplicity 1
 C         1.815807         2.094752        -0.504965
 C         1.881075         0.989778         0.404428
 C         2.280809         1.004934         2.007153
 C         2.395917        -0.544189         1.826302
 O         3.243472        -1.192931         2.687565
 C         0.940821        -0.973444         1.433223
 C         1.133294        -0.396509         0.157610
 C         2.613041        -0.448747         0.211271
 O         3.468687        -0.971288        -0.850697
 H         2.666965         2.398075        -1.111876
 H         1.064870         1.906890        -1.215856
 H         1.635970         2.945081         0.066992
 H         3.284661         1.463921         2.172258
 H         1.571916         1.340728         2.761578
 H         2.746889        -1.582728         3.405295
 H         0.834173        -2.132014         1.529106
 H         0.102045        -0.507245         1.908960
 H         0.527426        -0.533746        -0.765461
 H         4.216771        -0.379439        -0.813058
