19
Iteration:  3632charge 0 multiplicity 1
 C         1.772748         2.118114        -0.573377
 C         1.908543         0.974955         0.418597
 C         2.271589         0.954592         1.947311
 C         2.460967        -0.523888         1.872407
 O         3.102858        -1.155147         2.894595
 C         1.022519        -1.004195         1.479435
 C         1.195261        -0.416123         0.089682
 C         2.626888        -0.402845         0.194377
 O         3.488934        -0.923292        -0.824739
 H         2.644988         2.584805        -0.879971
 H         1.305087         1.640279        -1.428678
 H         1.169482         2.929920        -0.250918
 H         3.211799         1.518992         1.924668
 H         1.429498         1.342452         2.542289
 H         3.669789        -1.811925         2.446367
 H         1.128237        -2.139765         1.528014
 H         0.198058        -0.534884         1.974923
 H         0.639828        -0.407270        -0.840471
 H         2.809129        -1.255287        -1.506448
