19
Iteration:  3854
 C         1.838431         2.224366        -0.562142
 C         1.929374         0.970923         0.393635
 C         2.173159         0.955824         1.825840
 C         2.321749        -0.641815         1.834033
 O         3.259999        -1.141856         2.709835
 C         0.992835        -1.233241         1.430825
 C         1.102522        -0.377409         0.146251
 C         2.626397        -0.404723         0.262468
 O         3.502173        -0.775299        -0.689591
 H         2.908637         2.514572        -0.658533
 H         1.646388         2.015830        -1.630618
 H         1.073985         2.979867        -0.263856
 H         3.204389         1.430788         2.031830
 H         1.488667         1.549975         2.532725
 H         2.931446        -1.353471         3.613559
 H         0.933711        -2.309811         1.243638
 H         0.119000        -0.980679         2.168508
 H         0.626531        -0.392794        -0.831281
 H         3.834219        -1.684212        -0.746626
