19
Iteration:  2491charge 0 multiplicity 1
 C         1.824588         2.119937        -0.550528
 C         1.957877         0.967580         0.450152
 C         2.402281         0.941938         1.869748
 C         2.435641        -0.597827         1.872640
 O         3.062336        -1.207005         2.914469
 C         0.949498        -1.115037         1.548902
 C         1.143051        -0.402475         0.155227
 C         2.665985        -0.394899         0.188958
 O         3.373985        -0.761025        -1.019981
 H         1.941515         3.012323         0.148546
 H         2.716964         2.174254        -1.199555
 H         0.940986         2.254277        -1.171639
 H         3.438639         1.452094         2.057173
 H         1.621085         1.324200         2.582026
 H         3.936509        -0.829625         2.985663
 H         0.972144        -2.245365         1.461136
 H         0.004666        -0.699190         2.088312
 H         0.460816        -0.475006        -0.712007
 H         3.205654        -1.691712        -1.217294
