19
Iteration:  3394
 C         1.788556         2.060528        -0.723178
 C         1.888334         0.950785         0.398503
 C         2.245981         1.051503         1.911830
 C         2.437433        -0.515629         1.763102
 O         3.189925        -1.369252         2.551353
 C         1.016580        -1.010581         1.541308
 C         0.989266        -0.251339         0.222332
 C         2.551611        -0.328887         0.248377
 O         3.575781        -1.005280        -0.483260
 H         2.834027         2.436975        -0.845891
 H         1.143092         1.826969        -1.606154
 H         1.167763         2.891970        -0.336618
 H         3.213439         1.566699         1.961928
 H         1.551056         1.437607         2.625653
 H         4.141888        -1.244828         2.409179
 H         1.018767        -2.052371         1.562105
 H         0.295956        -0.756392         2.411040
 H         0.209080        -0.089157        -0.555896
 H         3.930699        -0.497968        -1.299249
