19
Iteration:  1023
 C         1.713572         2.199422        -0.517649
 C         1.970490         0.906984         0.369118
 C         2.548999         0.965621         1.766974
 C         2.431289        -0.529730         1.827628
 O         3.306311        -1.210489         2.642884
 C         0.931662        -0.778642         1.745456
 C         0.994438        -0.259514         0.306291
 C         2.556880        -0.568017         0.126354
 O         3.342629        -1.136927        -0.866979
 H         2.174124         2.112971        -1.465006
 H         0.653594         2.238203        -0.717409
 H         2.025156         3.006314         0.201785
 H         3.613635         1.467528         2.021698
 H         1.940202         1.443437         2.561526
 H         4.149062        -0.740136         2.905298
 H         0.734490        -1.910372         1.733247
 H         0.303471        -0.194610         2.481203
 H         0.197084        -0.343716        -0.346885
 H         2.832840        -1.749149        -1.532169
