19
Iteration:  3779
 C         1.770727         2.012010        -0.588254
 C         1.976750         0.957698         0.463817
 C         2.288950         1.032160         1.875000
 C         2.355665        -0.561748         1.842670
 O         3.166242        -1.221809         2.760542
 C         0.914332        -1.130472         1.434440
 C         1.161151        -0.341761         0.102116
 C         2.561822        -0.334923         0.194073
 O         3.568080        -0.781853        -0.650841
 H         2.696946         2.554043        -0.739723
 H         1.516308         1.582550        -1.511852
 H         0.953582         2.667263        -0.354667
 H         3.254079         1.436424         2.248821
 H         1.488959         1.600509         2.526675
 H         3.922108        -1.620971         2.312867
 H         1.118651        -2.159211         1.285159
 H         0.003860        -0.873327         2.090531
 H         0.418604        -0.092250        -0.681272
 H         3.300556        -1.608612        -1.053207
