19
Iteration:  2514
 C         1.899833         2.175704        -0.511119
 C         1.976461         0.931585         0.360947
 C         2.336925         0.915102         1.792848
 C         2.389112        -0.645445         1.863168
 O         3.166555        -1.224040         2.927274
 C         1.022358        -1.107645         1.533586
 C         0.987441        -0.333151         0.186208
 C         2.533462        -0.445869         0.086548
 O         3.462828        -0.743230        -0.880949
 H         2.138159         3.063300         0.129126
 H         2.497500         2.206710        -1.432782
 H         0.877500         2.251756        -0.838739
 H         3.470275         1.134556         1.986282
 H         1.707373         1.531258         2.517398
 H         3.688280        -0.418547         3.202658
 H         0.944119        -2.127632         1.123706
 H         0.164905        -0.817168         2.295986
 H         0.106684        -0.570168        -0.490184
 H         3.360010        -1.645076        -1.224985
