19
Iteration:   519
 C         1.700882         2.018766        -0.727821
 C         1.899570         0.939967         0.361685
 C         2.359367         1.011451         1.892116
 C         2.426074        -0.535887         1.774676
 O         3.212272        -1.251397         2.631477
 C         0.928697        -1.042529         1.606183
 C         0.947455        -0.423175         0.260210
 C         2.522250        -0.446032         0.169368
 O         3.656678        -0.806047        -0.584411
 H         0.755886         2.463264        -0.635701
 H         2.379553         2.842670        -0.611379
 H         1.861622         1.582425        -1.729307
 H         3.257348         1.553540         1.949230
 H         1.738089         1.433919         2.753650
 H         4.159751        -1.011678         2.698144
 H         0.967008        -2.152759         1.780871
 H         0.215087        -0.694248         2.421572
 H         0.194585        -0.319929        -0.609892
 H         3.928395        -0.041509        -1.049223
