19
Iteration:  2041
 C         1.955091         1.996975        -0.624671
 C         1.933975         0.989433         0.476196
 C         2.420891         0.985101         1.884252
 C         2.424973        -0.543639         1.766286
 O         3.295497        -1.356364         2.476600
 C         0.946269        -0.933618         1.681103
 C         0.917186        -0.233204         0.385389
 C         2.369150        -0.345869         0.132464
 O         3.378391        -0.890114        -0.696260
 H         1.158806         2.798801        -0.655582
 H         2.887632         2.542417        -0.391217
 H         2.051992         1.537264        -1.621067
 H         3.489822         1.390457         1.772509
 H         1.828068         1.564339         2.598336
 H         4.197281        -1.218294         2.220532
 H         1.070134        -2.045754         1.633841
 H         0.205980        -0.619870         2.354799
 H         0.096224        -0.151055        -0.269932
 H         3.384169        -1.820486        -0.785053
