19
Iteration:  4437charge 0 multiplicity 1
 C         1.713727         2.107261        -0.539230
 C         1.885278         0.922867         0.413483
 C         2.184717         1.020750         1.880688
 C         2.320130        -0.552152         1.774370
 O         3.203070        -1.387398         2.539896
 C         0.875290        -1.007296         1.513793
 C         1.115801        -0.418989         0.163405
 C         2.682650        -0.324183         0.280835
 O         3.726835        -0.778582        -0.511564
 H         1.914663         3.079347        -0.209393
 H         2.300131         2.041026        -1.409965
 H         0.714250         2.088111        -0.947387
 H         3.136184         1.508169         2.050082
 H         1.394903         1.439899         2.615094
 H         4.082934        -1.471056         2.118515
 H         0.816395        -2.048420         1.469877
 H         0.037455        -0.497209         2.149649
 H         0.692689        -0.608422        -0.898691
 H         3.480026        -0.842339        -1.470905
