19
Iteration:  2127charge 0 multiplicity 1
 C         1.807686         2.126866        -0.541019
 C         2.070748         0.949618         0.343185
 C         2.492578         0.958153         1.868417
 C         2.452615        -0.536032         1.911413
 O         3.206263        -1.341500         2.771519
 C         0.984229        -0.961571         1.618150
 C         1.010142        -0.337319         0.214977
 C         2.556550        -0.374368         0.071100
 O         3.280816        -0.905536        -0.865179
 H         2.418785         3.029906        -0.237497
 H         1.934408         1.849607        -1.644899
 H         0.746621         2.654221        -0.494906
 H         3.536296         1.378952         1.741531
 H         2.056702         1.576894         2.579903
 H         3.731268        -0.716318         3.318842
 H         0.877699        -2.075497         1.603401
 H         0.267991        -0.644430         2.390353
 H         0.291204        -0.445029        -0.537071
 H         2.624390        -1.551167        -1.302991
