19
Iteration:   988
 C         1.758691         2.191875        -0.581790
 C         1.937657         0.967401         0.305523
 C         2.619192         0.992476         1.732009
 C         2.511772        -0.478402         1.805732
 O         3.169152        -1.260402         2.796215
 C         1.049101        -0.993870         1.680438
 C         1.037244        -0.325487         0.350014
 C         2.531990        -0.401090         0.172147
 O         3.178760        -1.021825        -0.883958
 H         2.104675         2.096638        -1.642081
 H         0.673857         2.447505        -0.555466
 H         2.207713         3.171050        -0.337949
 H         3.704977         1.343926         1.716935
 H         2.007992         1.433003         2.449159
 H         4.155890        -1.250878         2.663624
 H         1.031233        -2.060903         1.755782
 H         0.511866        -0.595625         2.574481
 H         0.284630        -0.490886        -0.417030
 H         3.164387        -1.998076        -0.620764
