19
Iteration:  2603charge 0 multiplicity 1
 C         1.800429         2.026865        -0.608427
 C         1.797896         1.009439         0.440438
 C         2.293308         1.002059         1.886165
 C         2.321259        -0.519107         1.771102
 O         3.255791        -1.253986         2.509469
 C         0.866671        -1.106157         1.532003
 C         1.052109        -0.267394         0.224603
 C         2.553815        -0.351815         0.224669
 O         3.729878        -0.854321        -0.489556
 H         2.800533         2.157926        -1.032644
 H         1.076833         1.763640        -1.395511
 H         1.485447         2.985306        -0.208715
 H         3.369254         1.318203         2.047400
 H         1.753964         1.403699         2.768526
 H         3.774677        -1.835078         1.891718
 H         0.931810        -2.100088         1.174253
 H        -0.108070        -0.842781         2.147416
 H         0.249747        -0.063174        -0.475650
 H         3.447786        -1.557743        -1.116202
