19
Iteration:  4545charge 0 multiplicity 1
 C         1.776472         2.150430        -0.451297
 C         1.940986         0.920786         0.363668
 C         2.226175         0.949698         1.827634
 C         2.455670        -0.585217         1.888043
 O         3.107107        -1.326400         2.769595
 C         0.973662        -1.000492         1.567621
 C         1.103955        -0.356044         0.194346
 C         2.669229        -0.442753         0.179072
 O         3.523239        -0.748463        -0.940574
 H         0.779836         2.729490        -0.443822
 H         2.564799         2.891661        -0.242210
 H         1.920937         1.886498        -1.558576
 H         3.111033         1.406249         2.101754
 H         1.437943         1.197954         2.517264
 H         3.776745        -0.702067         3.162856
 H         0.881493        -2.037595         1.424839
 H         0.079905        -0.672090         2.123226
 H         0.427407        -0.563753        -0.669375
 H         3.952790        -1.560755        -0.759405
