19
Iteration:   400charge 0 multiplicity 1
 C         1.798926         2.128024        -0.620361
 C         1.826617         0.955377         0.394988
 C         2.180599         0.999553         1.857584
 C         2.413839        -0.472587         1.809208
 O         3.298924        -1.113821         2.613079
 C         0.999311        -1.186032         1.537616
 C         1.145562        -0.451829         0.241926
 C         2.648327        -0.368565         0.274086
 O         3.408299        -0.970663        -0.725360
 H         1.778578         3.037258        -0.063072
 H         2.730260         2.104365        -1.158409
 H         0.948240         2.024266        -1.366717
 H         3.015205         1.688744         2.096799
 H         1.336205         1.272918         2.443996
 H         3.307127        -0.625081         3.447134
 H         1.052929        -2.347645         1.478746
 H         0.152973        -0.904358         2.238549
 H         0.708620        -0.705334        -0.804525
 H         4.266901        -0.429938        -0.705400
