19
Iteration:  4284charge 0 multiplicity 1
 C         1.833735         2.103399        -0.558911
 C         1.771277         0.908796         0.398486
 C         2.211900         0.962595         1.830255
 C         2.263761        -0.562945         1.799956
 O         3.366972        -1.279441         2.511806
 C         0.807214        -1.115874         1.500463
 C         1.004299        -0.428916         0.127427
 C         2.567352        -0.392562         0.259698
 O         3.801682        -0.555251        -0.454243
 H         2.766913         1.991459        -1.101662
 H         1.051453         2.041680        -1.369545
 H         1.950863         3.159492        -0.124348
 H         3.194761         1.408309         1.868539
 H         1.459170         1.476025         2.539604
 H         3.128743        -2.204606         2.652100
 H         0.781844        -2.150887         1.542573
 H        -0.180446        -0.723741         2.018607
 H         0.467294        -0.758256        -0.753633
 H         3.949243        -1.546822        -0.720624
