19
Iteration:  4914charge 0 multiplicity 1
 C         1.693424         2.159738        -0.518717
 C         1.928003         0.977197         0.416823
 C         2.262771         1.012068         1.894981
 C         2.428127        -0.552281         1.794302
 O         3.106305        -1.493909         2.595024
 C         0.935066        -0.889965         1.601591
 C         1.226664        -0.413960         0.164068
 C         2.679079        -0.305375         0.143830
 O         3.518130        -0.878160        -0.788299
 H         0.553329         2.275499        -0.566201
 H         2.237274         3.112487        -0.238351
 H         2.172981         1.982385        -1.511723
 H         3.058687         1.694257         2.376779
 H         1.514522         1.153686         2.679295
 H         3.743606        -1.144685         3.231973
 H         0.711680        -1.990864         1.795202
 H         0.281434        -0.219518         2.102565
 H         0.514080        -0.298978        -0.753221
 H         4.155889        -1.453760        -0.245385
