19
Iteration:  2140
 C         1.766437         2.159848        -0.592878
 C         2.031428         1.023502         0.415625
 C         2.531742         0.947602         1.870486
 C         2.396422        -0.602558         1.833728
 O         3.252161        -1.312728         2.806595
 C         0.911983        -0.990083         1.624376
 C         1.044409        -0.264646         0.221180
 C         2.470441        -0.408139         0.126028
 O         3.351041        -0.925362        -0.870877
 H         2.663843         2.863140        -0.785225
 H         1.596874         1.707700        -1.606691
 H         0.788390         2.584237        -0.217568
 H         3.646283         1.131632         1.951438
 H         2.003051         1.451397         2.628367
 H         4.067746        -0.788792         2.902078
 H         0.888754        -2.106557         1.531454
 H         0.162113        -0.608444         2.262740
 H         0.433716        -0.055715        -0.657149
 H         3.032969        -1.742233        -1.205931
