19
Iteration:   293charge 0 multiplicity 1
 C         1.725200         2.060855        -0.639878
 C         1.930236         0.910939         0.388184
 C         2.224524         0.965157         1.889379
 C         2.388693        -0.501217         1.778370
 O         3.218296        -1.124773         2.623125
 C         0.978040        -1.039404         1.661191
 C         1.118772        -0.391993         0.243550
 C         2.575312        -0.435698         0.196842
 O         3.529249        -0.979603        -0.692232
 H         0.759345         2.477228        -1.015057
 H         2.171464         2.976383        -0.193364
 H         2.363398         2.018998        -1.618061
 H         3.222730         1.525444         2.194805
 H         1.411176         1.297216         2.581104
 H         4.156131        -0.974553         2.581873
 H         0.941932        -2.178275         1.662500
 H         0.267027        -0.575859         2.424454
 H         0.341311        -0.372700        -0.578708
 H         3.885254        -0.342277        -1.386984
