19
Iteration:  3283
 C         1.886837         2.042149        -0.478527
 C         2.024970         0.917432         0.389466
 C         2.246265         0.998888         1.967525
 C         2.413115        -0.580081         1.898250
 O         3.179185        -1.061344         2.857118
 C         1.008575        -1.077060         1.474589
 C         1.193175        -0.356711         0.099366
 C         2.679115        -0.423837         0.145279
 O         3.303805        -0.843136        -0.965710
 H         2.397332         2.873021        -0.029217
 H         1.995931         1.839146        -1.564021
 H         0.880953         2.506707        -0.550184
 H         3.197973         1.407330         2.229865
 H         1.507139         1.247343         2.717715
 H         2.767706        -1.842497         3.304256
 H         1.024860        -2.096636         1.220625
 H         0.165428        -0.751477         2.156460
 H         0.523461        -0.209903        -0.731847
 H         3.165960        -1.724176        -1.215860
