19
Iteration:  2823
 C         1.860686         2.118393        -0.630797
 C         1.956356         1.029748         0.386317
 C         2.208835         1.007087         1.939493
 C         2.387764        -0.597997         1.832943
 O         3.361783        -1.262630         2.642736
 C         0.862892        -1.040631         1.582414
 C         1.146167        -0.298098         0.178451
 C         2.556698        -0.427720         0.177500
 O         3.415711        -0.931999        -0.699375
 H         2.441040         3.029333        -0.274485
 H         2.281775         1.797520        -1.653939
 H         0.797678         2.619703        -0.613710
 H         3.035281         1.486093         2.440778
 H         1.246838         1.365107         2.326138
 H         3.175712        -2.226074         2.455106
 H         0.840748        -2.091111         1.651545
 H        -0.048906        -0.700441         2.217646
 H         0.610311        -0.367610        -0.829918
 H         4.203683        -0.275388        -0.652989
