19
Iteration:   249charge 0 multiplicity 1
 C         1.821985         2.141261        -0.723261
 C         1.828471         1.002008         0.364124
 C         2.275239         0.997810         1.844571
 C         2.409210        -0.542577         1.770828
 O         3.297272        -1.200847         2.620238
 C         1.046346        -1.110131         1.601630
 C         1.046550        -0.426898         0.267305
 C         2.582644        -0.332269         0.305165
 O         3.463100        -0.940122        -0.609673
 H         0.891334         2.218859        -1.331096
 H         1.935582         3.170146        -0.303581
 H         2.605151         2.056076        -1.575231
 H         3.361441         1.413480         2.065430
 H         1.665947         1.282150         2.735965
 H         3.511769        -0.542617         3.283060
 H         1.157717        -2.227330         1.253546
 H         0.072199        -1.122343         2.292422
 H         0.423770        -0.662323        -0.593082
 H         2.861068        -1.066961        -1.399529
