19
Iteration:  1970
 C         1.765758         2.103367        -0.506105
 C         1.993030         0.959524         0.372946
 C         2.564859         0.941329         1.839953
 C         2.484281        -0.529989         1.727105
 O         3.218597        -1.330993         2.678859
 C         0.986359        -0.878663         1.659408
 C         0.964074        -0.188980         0.274813
 C         2.403984        -0.467565         0.118858
 O         3.360845        -0.945345        -0.756677
 H         0.883238         2.157995        -1.193340
 H         1.773272         3.105193         0.058492
 H         2.655337         2.197804        -1.322566
 H         3.600381         1.191459         1.815626
 H         2.080256         1.273122         2.784857
 H         4.142843        -1.249547         2.474224
 H         0.799013        -1.907957         1.413485
 H         0.312969        -0.477572         2.488628
 H         0.085959        -0.273715        -0.400623
 H         3.214636        -1.849113        -0.962600
