19
Iteration:  1978
 C         1.795752         2.072161        -0.546542
 C         2.035604         0.990938         0.468688
 C         2.557484         1.016902         1.903860
 C         2.477864        -0.567922         1.691841
 O         3.215781        -1.345044         2.620680
 C         0.959291        -0.873737         1.637334
 C         0.951141        -0.217783         0.260793
 C         2.402631        -0.494617         0.125982
 O         3.381125        -0.933593        -0.744211
 H         0.757747         1.995031        -0.922538
 H         1.746621         2.998924        -0.016983
 H         2.484820         2.078981        -1.342780
 H         3.552051         1.409135         1.828877
 H         2.069813         1.651629         2.716823
 H         4.118717        -1.350917         2.304314
 H         0.766389        -2.007495         1.703607
 H         0.372139        -0.289222         2.392896
 H         0.199328        -0.351550        -0.468594
 H         2.995476        -1.774468        -0.968924
