19
Iteration:  3965
 C         1.868113         2.118567        -0.574398
 C         1.920926         0.915329         0.414923
 C         2.156118         1.014737         1.914943
 C         2.343896        -0.609063         1.836543
 O         3.207040        -1.143104         2.750826
 C         0.945634        -1.140664         1.457677
 C         1.094952        -0.433814         0.141951
 C         2.604792        -0.380744         0.158568
 O         3.637983        -0.731853        -0.710805
 H         2.623487         2.920612        -0.273882
 H         1.933800         1.934247        -1.664886
 H         0.793111         2.541898        -0.450500
 H         3.056874         1.503130         2.236756
 H         1.324409         1.367664         2.587810
 H         3.279923        -2.071001         2.465500
 H         1.019213        -2.181542         1.347963
 H         0.048655        -0.853430         2.172377
 H         0.248068        -0.253122        -0.516018
 H         3.720550        -1.694093        -0.989668
