19
Iteration:  4503
 C         1.925450         2.230029        -0.493010
 C         1.812943         0.965122         0.384672
 C         2.229716         0.965710         1.894316
 C         2.277890        -0.529748         1.808923
 O         3.255492        -1.176699         2.609741
 C         0.929430        -1.207455         1.440464
 C         1.036825        -0.442945         0.177780
 C         2.555121        -0.402773         0.228950
 O         3.610327        -0.818029        -0.597902
 H         1.606099         3.083417         0.050479
 H         2.969045         2.235596        -0.638399
 H         1.337206         2.118098        -1.406536
 H         3.239429         1.306896         1.857301
 H         1.560504         1.524254         2.590323
 H         4.149957        -1.041493         2.215694
 H         1.201870        -2.203743         1.346641
 H         0.077792        -1.121105         2.195447
 H         0.307304        -0.516466        -0.651094
 H         3.259418        -1.385162        -1.291980
