19
Iteration:  4013charge 0 multiplicity 1
 C         1.841286         2.233472        -0.426795
 C         1.859755         0.938569         0.429559
 C         2.061072         0.969812         1.893900
 C         2.374554        -0.514600         1.864452
 O         3.189462        -1.159432         2.824795
 C         1.123479        -1.215771         1.351040
 C         1.163774        -0.397594         0.064630
 C         2.670480        -0.336223         0.174774
 O         3.537941        -0.903025        -0.808958
 H         2.843634         2.395981        -0.670319
 H         1.446801         1.953174        -1.386631
 H         1.360307         3.079740        -0.116475
 H         3.025672         1.468746         2.197346
 H         1.276446         1.321212         2.646196
 H         2.768779        -0.740817         3.612867
 H         1.330626        -2.319294         1.079481
 H         0.260676        -1.144504         2.004492
 H         0.561202        -0.488162        -0.871493
 H         3.134749        -1.639039        -1.212236
