19
Iteration:  3309charge 0 multiplicity 1
 C         1.887012         2.071777        -0.677821
 C         2.001641         0.999251         0.347302
 C         2.266057         0.927189         1.917913
 C         2.408188        -0.581303         1.866782
 O         3.245368        -1.235362         2.760912
 C         0.938994        -1.072701         1.563385
 C         1.007733        -0.249606         0.273379
 C         2.585283        -0.272898         0.164765
 O         3.460991        -0.842972        -0.785810
 H         2.244379         3.069526        -0.304371
 H         2.400066         1.779539        -1.612503
 H         0.847217         2.402663        -0.900879
 H         3.198691         1.438453         2.329667
 H         1.347221         1.188140         2.550418
 H         3.352100        -2.158511         2.418341
 H         0.972365        -2.151353         1.288777
 H         0.089519        -0.817935         2.315295
 H         0.475963        -0.552895        -0.646323
 H         3.409354        -1.775020        -0.749613
