19
Iteration:   115
 C         1.814717         2.069675        -0.620279
 C         1.897392         0.916041         0.463499
 C         2.240094         0.977964         1.935653
 C         2.376427        -0.547847         1.783112
 O         3.320768        -1.132998         2.641854
 C         0.971072        -0.880063         1.628086
 C         1.085356        -0.417553         0.188970
 C         2.597251        -0.425813         0.193851
 O         3.430979        -1.029517        -0.728459
 H         2.400449         1.776983        -1.493320
 H         0.767939         2.314330        -0.817716
 H         2.189848         2.972964        -0.058459
 H         3.013738         1.768820         2.074209
 H         1.440780         1.297850         2.641640
 H         3.915347        -1.525657         2.012660
 H         0.680042        -1.996062         1.538956
 H         0.175709        -0.503591         2.434613
 H         0.460113        -0.384539        -0.687082
 H         3.914190        -0.421454        -1.373554
