19
Iteration:   485
 C         1.641540         2.000799        -0.749309
 C         1.939466         0.932165         0.421438
 C         2.236000         1.119034         1.933038
 C         2.477838        -0.493413         1.844460
 O         3.180425        -1.314185         2.739691
 C         0.977940        -1.048368         1.532134
 C         1.124607        -0.430622         0.178640
 C         2.640344        -0.355275         0.299245
 O         3.524555        -0.862800        -0.708673
 H         1.096112         2.812204        -0.336660
 H         2.564671         2.428905        -1.165838
 H         1.027777         1.720223        -1.593909
 H         3.134572         1.645127         1.916866
 H         1.432568         1.458004         2.678598
 H         4.053316        -1.514106         2.372019
 H         1.141990        -2.109206         1.614778
 H         0.195489        -0.674746         2.248454
 H         0.505185        -0.507178        -0.834903
 H         3.888368        -0.110189        -1.145084
