19
Iteration:  1483charge 0 multiplicity 1
 C         1.968292         1.959148        -0.655135
 C         1.849685         0.894993         0.406556
 C         2.682726         0.996104         1.860123
 C         2.476662        -0.592698         1.792560
 O         3.318487        -1.373204         2.506226
 C         0.874779        -0.811307         1.859541
 C         0.834983        -0.345044         0.415729
 C         2.394369        -0.415878         0.172398
 O         3.274974        -0.717191        -0.824192
 H         1.559142         2.977976        -0.489119
 H         3.027350         2.050945        -1.030048
 H         1.377143         1.724330        -1.564643
 H         3.596598         1.485831         1.606843
 H         2.172171         1.606287         2.680613
 H         4.193972        -1.253231         2.129111
 H         0.606382        -1.929928         1.942084
 H         0.238732        -0.114417         2.591840
 H         0.058934        -0.625514        -0.384860
 H         3.458355        -1.682946        -0.860570
