19
Iteration:  2801charge 0 multiplicity 1
 C         1.895308         2.125289        -0.636121
 C         1.839351         0.960425         0.343878
 C         2.210651         0.992465         1.926166
 C         2.414884        -0.542443         1.720239
 O         3.262832        -1.292987         2.513271
 C         1.021575        -1.017483         1.563624
 C         0.927754        -0.313702         0.270383
 C         2.596114        -0.352687         0.257016
 O         3.532243        -0.915230        -0.606237
 H         2.384762         3.067316        -0.222554
 H         2.550918         1.777758        -1.502438
 H         0.841584         2.498327        -0.956781
 H         3.220635         1.361876         1.813839
 H         1.695965         1.378492         2.809216
 H         2.927225        -2.177852         2.640876
 H         0.995047        -2.073572         1.481701
 H         0.260543        -0.839713         2.417915
 H         0.058473        -0.348874        -0.451150
 H         4.248877        -0.518789        -0.135966
