19
Iteration:  4788
 C         1.848505         2.049199        -0.606453
 C         1.867650         1.020945         0.427585
 C         2.312965         0.926182         1.950478
 C         2.384413        -0.615215         1.717023
 O         3.233349        -1.175261         2.769781
 C         0.968326        -1.191946         1.455270
 C         1.051727        -0.341277         0.176140
 C         2.568104        -0.330699         0.177745
 O         3.487478        -0.706946        -0.730618
 H         1.332149         2.952635        -0.305995
 H         2.810179         2.500666        -0.895277
 H         1.314967         1.653507        -1.507505
 H         3.305906         1.219966         2.241417
 H         1.671231         1.358229         2.737624
 H         2.990054        -2.089534         2.940426
 H         0.878507        -2.206967         1.253164
 H         0.225844        -0.832572         2.205446
 H         0.421104        -0.506655        -0.816115
 H         4.268100        -1.111172        -0.299464
