19
Iteration:  4560charge 0 multiplicity 1
 C         1.738900         2.073285        -0.559443
 C         1.985884         0.966570         0.461526
 C         2.384873         1.016982         1.927403
 C         2.363061        -0.565300         1.833026
 O         3.091451        -1.367978         2.827122
 C         0.962158        -1.146767         1.490948
 C         1.143532        -0.341864         0.175017
 C         2.593051        -0.324863         0.110736
 O         3.482582        -0.741384        -0.926888
 H         0.723202         2.342845        -0.551650
 H         2.259431         3.022764        -0.392612
 H         2.118852         1.890207        -1.600126
 H         3.429556         1.501027         2.008278
 H         1.747536         1.651078         2.624009
 H         3.526181        -0.781139         3.455732
 H         1.039956        -2.261655         1.392858
 H         0.267301        -0.843664         2.333758
 H         0.443107        -0.331891        -0.623673
 H         3.970030        -1.562495        -0.572797
