19
Iteration:  1619charge 0 multiplicity 1
 C         1.811673         2.143181        -0.476177
 C         1.946948         0.985585         0.383772
 C         2.567495         1.011134         1.731804
 C         2.488305        -0.523773         1.799999
 O         3.309806        -1.394582         2.478012
 C         1.010229        -0.839068         1.752786
 C         0.969389        -0.203281         0.344051
 C         2.430023        -0.408162         0.183386
 O         3.222667        -1.070014        -0.730763
 H         0.788614         2.373847        -0.644277
 H         2.482308         2.874962        -0.146270
 H         2.286682         1.894788        -1.423488
 H         3.673816         1.224475         1.770703
 H         2.244733         1.539173         2.572919
 H         4.220549        -1.096119         2.304414
 H         0.717062        -1.881928         1.551395
 H         0.236978        -0.294604         2.497363
 H         0.120897        -0.235154        -0.300861
 H         2.786399        -1.943579        -1.021109
