19
Iteration:  4160
 C         1.900022         2.199488        -0.465672
 C         1.944865         0.904239         0.338127
 C         2.048063         0.964917         1.864373
 C         2.348210        -0.596626         1.882539
 O         3.267977        -1.214569         2.730678
 C         0.965935        -1.150622         1.440358
 C         1.179618        -0.433915         0.100209
 C         2.641675        -0.439247         0.227350
 O         3.485275        -0.687640        -0.793322
 H         2.303276         3.048221         0.157294
 H         2.487682         2.178535        -1.346837
 H         0.891208         2.389340        -0.775846
 H         2.978729         1.541352         2.124918
 H         1.140386         1.248038         2.494119
 H         3.134854        -0.983525         3.665574
 H         0.880090        -2.252837         1.454265
 H         0.131067        -0.808922         2.118429
 H         0.649709        -0.619843        -0.933195
 H         3.788189        -1.663099        -0.855416
