19
Iteration:   103
 C         1.824054         2.022939        -0.486921
 C         1.876795         0.888273         0.334821
 C         2.225419         1.016157         1.797878
 C         2.439856        -0.525198         1.820689
 O         3.346819        -1.129556         2.637824
 C         0.912194        -0.983831         1.600720
 C         1.056216        -0.344692         0.227866
 C         2.587092        -0.390574         0.213701
 O         3.435650        -1.006683        -0.689799
 H         2.453963         1.940018        -1.390153
 H         0.850591         2.261408        -0.933781
 H         2.252959         2.905558        -0.034260
 H         3.230491         1.376391         1.894254
 H         1.484916         1.449755         2.525625
 H         3.828498        -1.879015         2.192716
 H         0.754790        -2.093962         1.661924
 H         0.213220        -0.322375         2.239338
 H         0.186973        -0.341383        -0.494873
 H         3.937203        -0.302639        -1.174280
