19
Iteration:  2966charge 0 multiplicity 1
 C         1.898277         2.048355        -0.602553
 C         1.835959         0.995119         0.368543
 C         2.271157         1.038031         1.959750
 C         2.351858        -0.467662         1.811900
 O         3.274611        -1.372698         2.403418
 C         0.991460        -1.049661         1.596938
 C         0.929850        -0.323916         0.155284
 C         2.497941        -0.379127         0.191699
 O         3.545457        -0.897087        -0.541829
 H         2.942933         2.292155        -0.870388
 H         1.567494         1.730752        -1.645271
 H         1.467173         3.102743        -0.336513
 H         3.206232         1.587950         1.967782
 H         1.545223         1.631591         2.571139
 H         3.577127        -1.162357         3.309071
 H         1.210429        -2.043408         1.437295
 H         0.184274        -1.127055         2.395045
 H         0.215393        -0.307947        -0.615312
 H         4.409812        -0.712680        -0.030289
