19
Iteration:   370charge 0 multiplicity 1
 C         1.712417         2.002773        -0.694746
 C         1.921108         1.015853         0.377844
 C         2.200072         1.023581         1.885285
 C         2.442348        -0.503356         1.820204
 O         3.420049        -1.196979         2.719267
 C         0.952239        -1.124179         1.513173
 C         1.086019        -0.367789         0.203280
 C         2.583157        -0.374770         0.227285
 O         3.474768        -0.918339        -0.685026
 H         1.248049         2.981984        -0.298768
 H         2.629361         2.237414        -1.313395
 H         0.850669         1.731788        -1.442049
 H         3.088866         1.768708         2.135953
 H         1.217273         1.284273         2.365666
 H         2.909635        -1.769886         3.314060
 H         0.835972        -2.226370         1.477484
 H         0.259426        -0.682382         2.218494
 H         0.403738        -0.180895        -0.681251
 H         4.256450        -0.352365        -0.555902
