19
Iteration:   934
 C         1.940103         1.952005        -0.695913
 C         1.933149         0.918837         0.394995
 C         2.387964         0.994798         1.887644
 C         2.442180        -0.532474         1.778931
 O         3.380349        -1.271708         2.496285
 C         0.913008        -0.859174         1.810037
 C         0.973260        -0.261312         0.355863
 C         2.394619        -0.542746         0.235193
 O         3.326504        -0.821884        -0.802462
 H         1.400474         1.542747        -1.538559
 H         1.487668         2.888325        -0.370003
 H         2.965283         2.186437        -1.021338
 H         3.512883         1.351773         2.120880
 H         1.735363         1.527506         2.593350
 H         3.980756        -0.545540         2.845187
 H         0.780029        -1.941511         1.715099
 H         0.547453        -0.414931         2.778909
 H         0.132750        -0.453783        -0.353130
 H         3.104592        -1.667645        -1.323179
