19
Iteration:  3920
 C         1.764360         2.040312        -0.705062
 C         1.879981         0.929841         0.351232
 C         2.345992         0.980993         1.861913
 C         2.366795        -0.520899         1.849916
 O         3.204621        -1.447241         2.603145
 C         0.811060        -1.088653         1.549761
 C         1.022515        -0.437134         0.132945
 C         2.512445        -0.396026         0.270832
 O         3.724308        -0.519725        -0.494548
 H         2.575958         2.805798        -0.405387
 H         2.251378         1.768715        -1.681850
 H         0.761712         2.509763        -1.092904
 H         3.339422         1.440966         2.015014
 H         1.633487         1.413560         2.602759
 H         4.112961        -1.093717         2.510936
 H         0.708734        -2.132765         1.717664
 H         0.014788        -0.443429         2.145686
 H         0.364836        -0.409857        -0.657939
 H         3.708912        -1.471185        -0.866228
