19
Iteration:  3361
 C         1.874552         2.044337        -0.650830
 C         1.865918         0.901823         0.359747
 C         2.331452         1.009765         1.838503
 C         2.313907        -0.571937         1.813808
 O         3.283161        -1.324232         2.363148
 C         0.760785        -0.904781         1.649640
 C         0.956283        -0.427828         0.202652
 C         2.519013        -0.495321         0.287152
 O         3.681980        -0.766531        -0.375463
 H         2.743263         2.742395        -0.447916
 H         2.136776         1.892813        -1.684377
 H         0.992341         2.650350        -0.408767
 H         3.374059         1.324343         1.696054
 H         1.889639         1.673018         2.563286
 H         4.131233        -1.183211         1.861207
 H         0.598022        -1.895764         1.921182
 H         0.239726        -0.210250         2.382895
 H         0.227381        -0.335152        -0.612348
 H         3.532999        -0.873127        -1.317944
