19
Iteration:  2885
 C         1.862328         2.297963        -0.495906
 C         1.939125         0.898276         0.262226
 C         2.330875         0.954739         1.770162
 C         2.409942        -0.578950         1.829536
 O         3.114196        -1.188705         2.923324
 C         1.096424        -1.122472         1.553775
 C         1.079639        -0.371113         0.182554
 C         2.569349        -0.358839         0.124701
 O         3.382286        -0.914559        -0.847718
 H         2.784230         2.840168        -0.806930
 H         1.129624         2.188586        -1.255952
 H         1.435610         2.945755         0.244101
 H         3.412952         1.297117         1.943167
 H         1.514143         1.470738         2.358192
 H         2.835211        -2.157252         2.934104
 H         1.280749        -2.252535         1.261544
 H         0.315181        -0.805458         2.202032
 H         0.357302        -0.888805        -0.509447
 H         4.306243        -0.603295        -0.552611
