19
Iteration:  1165charge 0 multiplicity 1
 C         1.747370         2.129102        -0.654700
 C         1.909925         0.986444         0.340382
 C         2.534709         1.055776         1.746720
 C         2.539037        -0.562753         1.843079
 O         3.225429        -1.382310         2.748640
 C         1.054690        -0.952506         1.737200
 C         0.991765        -0.226902         0.362510
 C         2.476398        -0.434523         0.128965
 O         3.287316        -0.965706        -0.787416
 H         1.267118         1.776579        -1.607649
 H         1.241573         3.110696        -0.384663
 H         2.780547         2.548769        -0.990457
 H         3.606200         1.437862         1.631533
 H         2.156317         1.633087         2.583271
 H         3.994131        -0.876133         3.073367
 H         0.984342        -2.039244         1.462490
 H         0.320826        -0.726250         2.516213
 H         0.322697        -0.608838        -0.520081
 H         2.841964        -1.613782        -1.432242
