19
Iteration:   273charge 0 multiplicity 1
 C         1.819696         2.032300        -0.601735
 C         1.935254         0.957831         0.433251
 C         2.193192         1.129561         1.849207
 C         2.430893        -0.527252         1.828889
 O         3.345613        -1.250057         2.696838
 C         1.040925        -1.088972         1.516444
 C         0.970020        -0.343465         0.196044
 C         2.550624        -0.347991         0.198124
 O         3.459556        -1.002763        -0.650821
 H         0.776378         1.961012        -1.025199
 H         1.938257         3.100640        -0.401441
 H         2.397346         1.887296        -1.522733
 H         3.094706         1.788571         2.029326
 H         1.377589         1.440937         2.509548
 H         4.022442        -0.634163         2.999190
 H         1.075919        -2.195582         1.417315
 H         0.125715        -0.819513         2.288243
 H         0.305149        -0.573640        -0.718663
 H         3.493621        -0.647709        -1.589613
