19
Iteration:  2710charge 0 multiplicity 1
 C         1.820533         2.162310        -0.548868
 C         1.899689         0.966121         0.374223
 C         2.294657         0.988171         1.929073
 C         2.389023        -0.528497         1.859996
 O         3.144276        -1.180679         2.792650
 C         0.987061        -1.090186         1.529444
 C         1.152593        -0.383867         0.173624
 C         2.639006        -0.394851         0.189919
 O         3.475037        -0.864258        -0.804293
 H         2.803483         2.779349        -0.664620
 H         1.732526         1.734737        -1.595203
 H         0.958076         2.831157        -0.364322
 H         3.284927         1.498003         1.969290
 H         1.621089         1.469176         2.636038
 H         3.285929        -2.136202         2.703102
 H         1.244966        -2.149356         1.355603
 H         0.101077        -1.140854         2.144442
 H         0.570293        -0.577797        -0.721608
 H         3.071746        -1.194239        -1.600430
