19
Iteration:  3326charge 0 multiplicity 1
 C         1.909092         2.134373        -0.707364
 C         1.843125         0.986348         0.403168
 C         2.302211         0.994982         1.909840
 C         2.394358        -0.580883         1.736403
 O         3.238017        -1.290464         2.629018
 C         0.948269        -1.029573         1.608375
 C         1.007839        -0.328586         0.193822
 C         2.494458        -0.445983         0.247898
 O         3.555399        -0.779242        -0.575312
 H         2.417796         2.964238        -0.255245
 H         2.350306         1.765201        -1.640617
 H         0.941386         2.472529        -1.125261
 H         3.290371         1.387184         1.878737
 H         1.735966         1.485574         2.669785
 H         3.666597        -2.018611         2.105494
 H         0.896206        -2.117451         1.491736
 H         0.370376        -0.630438         2.417913
 H         0.214368        -0.255799        -0.512605
 H         3.401888        -1.682036        -0.831391
