19
Iteration:  4092charge 0 multiplicity 1
 C         1.786302         1.994000        -0.674361
 C         1.875019         0.965429         0.443328
 C         2.200839         0.966304         1.852375
 C         2.323971        -0.573024         1.803520
 O         3.180239        -1.367248         2.524438
 C         0.909206        -1.010142         1.598846
 C         1.117182        -0.448046         0.132289
 C         2.593104        -0.371534         0.268019
 O         3.737827        -0.519279        -0.469727
 H         2.414532         2.833536        -0.607140
 H         1.929974         1.593081        -1.658132
 H         0.856576         2.418485        -0.692589
 H         3.265747         1.396245         1.996076
 H         1.433288         1.408284         2.565670
 H         3.289170        -2.150484         1.947588
 H         0.677472        -2.141228         1.693480
 H         0.188578        -0.507690         2.184461
 H         0.601323        -0.519685        -0.806216
 H         3.766883        -1.392955        -0.820420
