19
Iteration:   855charge 0 multiplicity 1
 C         1.716833         2.061340        -0.662786
 C         2.024094         0.985504         0.372446
 C         2.416115         0.970882         1.841038
 C         2.510604        -0.589081         1.820232
 O         3.283827        -1.272533         2.748629
 C         0.959602        -0.902804         1.723308
 C         1.055276        -0.248598         0.266950
 C         2.502942        -0.468399         0.154618
 O         3.296207        -0.927387        -0.873729
 H         0.675874         2.383914        -0.645672
 H         2.290604         2.956397        -0.376532
 H         2.078099         1.725484        -1.579142
 H         3.450186         1.540907         1.991088
 H         1.710604         1.468835         2.497526
 H         4.193937        -1.070035         2.382510
 H         0.631134        -1.903953         1.875904
 H         0.552260        -0.221373         2.485548
 H         0.303507        -0.492024        -0.443920
 H         3.376807        -1.882257        -0.624088
