19
Iteration:   547
 C         1.808984         2.045892        -0.584378
 C         1.794042         0.915590         0.371214
 C         2.282725         0.979794         1.738324
 C         2.440658        -0.534155         1.792902
 O         3.350396        -1.222038         2.582897
 C         0.845572        -0.974900         1.599537
 C         1.031056        -0.490711         0.228067
 C         2.516592        -0.417889         0.241909
 O         3.537927        -0.857556        -0.579366
 H         0.701860         2.293090        -0.936054
 H         2.273850         2.954107         0.009380
 H         2.488116         1.754502        -1.394742
 H         3.279015         1.586183         1.670296
 H         1.716341         1.497093         2.538951
 H         4.008584        -0.606840         2.917971
 H         0.922868        -2.064369         1.601034
 H         0.102251        -0.612140         2.364988
 H         0.465759        -0.682253        -0.735138
 H         3.961716        -0.124719        -0.987265
