19
Iteration:   978charge 0 multiplicity 1
 C         1.760869         2.225568        -0.681437
 C         1.955882         1.007268         0.361163
 C         2.537484         0.990116         1.814337
 C         2.555335        -0.523018         1.838800
 O         3.173414        -1.272464         2.763774
 C         1.067702        -0.967401         1.760007
 C         1.005263        -0.290195         0.343644
 C         2.491637        -0.447936         0.185909
 O         3.193914        -1.016813        -0.930925
 H         1.969946         1.711377        -1.590315
 H         0.705462         2.477520        -0.671794
 H         2.431185         3.051904        -0.404291
 H         3.634994         1.432500         1.642020
 H         2.223837         1.508263         2.704058
 H         4.156472        -1.124196         2.564063
 H         1.150357        -2.053608         1.577043
 H         0.202010        -0.714656         2.439992
 H         0.523317        -0.561793        -0.560303
 H         3.393145        -2.014139        -0.740256
