19
Iteration:   813
 C         1.732889         2.188527        -0.532169
 C         1.965660         0.953543         0.341688
 C         2.477410         1.061564         1.739388
 C         2.479310        -0.490950         1.827287
 O         3.194848        -1.243670         2.709134
 C         1.019623        -1.060167         1.707900
 C         1.041113        -0.397241         0.321411
 C         2.511922        -0.391913         0.111377
 O         3.351862        -1.048583        -0.789156
 H         1.226244         3.027810        -0.110567
 H         2.584174         2.600946        -1.084253
 H         1.174138         1.800576        -1.374359
 H         3.681587         1.262472         1.758443
 H         2.070259         1.686258         2.535648
 H         3.848989        -0.711657         3.152984
 H         1.064154        -2.117970         1.562249
 H         0.286789        -0.482239         2.433058
 H         0.323677        -0.254845        -0.502966
 H         3.025992        -1.489463        -1.535398
