19
Iteration:  1737
 C         2.001497         2.133480        -0.494487
 C         1.990111         0.925899         0.445811
 C         2.440846         0.987497         1.813468
 C         2.498886        -0.589535         1.833351
 O         3.364373        -1.255193         2.713505
 C         0.964505        -0.861147         1.722888
 C         1.004252        -0.228978         0.360637
 C         2.446983        -0.482231         0.090682
 O         3.130772        -0.996947        -1.028944
 H         2.264564         3.074511         0.095661
 H         2.528953         1.735852        -1.435652
 H         0.910091         2.120776        -0.702193
 H         3.296939         1.621128         1.993082
 H         1.639576         1.185779         2.643905
 H         4.299147        -0.963925         2.450873
 H         0.709350        -1.911184         1.521382
 H         0.228992        -0.403656         2.317980
 H         0.005011        -0.147757        -0.155286
 H         2.802040        -1.884017        -1.202218
