19
Iteration:  3840charge 0 multiplicity 1
 C         1.902768         2.148687        -0.417748
 C         1.900861         0.887226         0.327708
 C         2.187506         0.946253         1.865658
 C         2.358870        -0.509838         1.799559
 O         3.239288        -1.031816         2.729102
 C         0.951723        -1.164274         1.441410
 C         1.109602        -0.427889         0.121431
 C         2.601743        -0.414364         0.190077
 O         3.536006        -0.813449        -0.741915
 H         2.905176         2.663344        -0.452348
 H         1.385471         2.101255        -1.447664
 H         1.355831         2.893094         0.257666
 H         3.157250         1.453722         2.094923
 H         1.363687         1.225034         2.451907
 H         2.683902        -1.528778         3.350172
 H         1.321161        -2.238202         1.210839
 H         0.082506        -1.169008         2.068234
 H         0.501897        -0.612980        -0.829429
 H         3.460923        -1.823424        -0.686691
