19
Iteration:  4850
 C         1.932398         2.182202        -0.528964
 C         1.861244         0.964352         0.389932
 C         2.272609         0.893230         1.915924
 C         2.361744        -0.544450         1.759829
 O         3.304846        -1.211818         2.624213
 C         0.923218        -1.077431         1.543075
 C         0.986376        -0.349558         0.134742
 C         2.466536        -0.400154         0.197236
 O         3.557826        -0.862459        -0.549972
 H         0.922053         2.530097        -0.839222
 H         2.571994         2.903641        -0.037546
 H         2.413060         1.886456        -1.462676
 H         3.270612         1.256865         2.127862
 H         1.417504         1.151882         2.652051
 H         3.954451        -1.342936         1.931844
 H         0.978418        -2.202382         1.345016
 H         0.018198        -0.832902         2.189102
 H         0.292224        -0.484944        -0.774258
 H         3.482157        -0.678196        -1.493516
