19
Iteration:  1080
 C         1.962440         2.046394        -0.735790
 C         1.891374         1.009189         0.418289
 C         2.427768         1.080178         1.826633
 C         2.462491        -0.507135         1.803200
 O         3.287366        -1.304913         2.450049
 C         1.026738        -1.070216         1.791385
 C         0.897807        -0.194619         0.446828
 C         2.474164        -0.342459         0.216261
 O         3.274181        -1.000316        -0.742492
 H         2.616998         1.561221        -1.441548
 H         0.930237         2.173040        -1.021932
 H         2.434394         2.998039        -0.479013
 H         3.574070         1.370746         1.720366
 H         1.843239         1.559885         2.705100
 H         4.119003        -0.897006         2.683688
 H         1.030526        -2.242092         1.698478
 H         0.423288        -0.745401         2.699203
 H         0.084742        -0.269093        -0.382052
 H         3.008555        -1.863868        -0.953710
