19
Iteration:  3556
 C         1.774740         2.097705        -0.659823
 C         1.874373         1.014739         0.389724
 C         2.191677         1.103668         1.782139
 C         2.352757        -0.545377         1.811659
 O         3.315878        -1.426069         2.440047
 C         0.904693        -0.951166         1.606555
 C         1.122164        -0.360198         0.207869
 C         2.577625        -0.342387         0.313336
 O         3.518518        -0.988177        -0.458340
 H         2.685482         2.667138        -0.734695
 H         1.697598         1.470839        -1.570098
 H         0.955594         2.781803        -0.749152
 H         3.219033         1.463403         2.011847
 H         1.498111         1.609978         2.554764
 H         4.168835        -0.914687         2.421378
 H         0.791568        -2.069529         1.662224
 H         0.157025        -0.641029         2.312112
 H         0.405830        -0.527015        -0.620345
 H         4.263072        -0.413158        -0.653445
