19
Iteration:  3247
 C         1.838197         2.266739        -0.523734
 C         1.882788         0.858325         0.261437
 C         2.374235         0.926785         1.777329
 C         2.426157        -0.566183         1.880127
 O         3.080895        -1.116879         3.012985
 C         1.060092        -1.107867         1.614400
 C         1.094399        -0.414771         0.184707
 C         2.569738        -0.503486         0.014211
 O         3.505547        -0.758707        -0.900641
 H         2.919696         2.490856        -0.473875
 H         1.586064         2.510565        -1.564944
 H         1.313777         2.847710         0.245347
 H         3.324924         1.420791         1.803564
 H         1.791214         1.357142         2.561524
 H         2.773152        -2.059257         3.059577
 H         0.944223        -2.238559         1.471437
 H         0.370901        -0.895280         2.366491
 H         0.253945        -0.481428        -0.560521
 H         3.166784        -1.432592        -1.452263
