19
Iteration:  3863charge 0 multiplicity 1
 C         1.854449         2.172559        -0.619809
 C         1.898403         1.007886         0.352638
 C         2.157148         1.020692         1.889146
 C         2.368859        -0.628768         1.836369
 O         3.292747        -1.245828         2.708199
 C         0.940467        -1.223675         1.447675
 C         1.111039        -0.344328         0.134344
 C         2.591079        -0.388152         0.258783
 O         3.553066        -0.738579        -0.697303
 H         2.786905         2.843144        -0.616383
 H         1.608764         1.639731        -1.606547
 H         1.054327         2.961263        -0.353682
 H         3.243649         1.209118         2.137371
 H         1.464079         1.440321         2.580792
 H         2.887397        -1.175674         3.610156
 H         0.875899        -2.356981         1.238710
 H         0.173081        -0.901355         2.170125
 H         0.449787        -0.602881        -0.740500
 H         3.646398        -1.676295        -0.433805
