19
Iteration:   557charge 0 multiplicity 1
 C         1.847728         2.102126        -0.554681
 C         1.796703         0.856899         0.317822
 C         2.223891         1.077580         1.781888
 C         2.495202        -0.446503         1.829429
 O         3.380778        -1.246857         2.614745
 C         0.859324        -1.105418         1.609585
 C         0.994368        -0.409210         0.236285
 C         2.527309        -0.462039         0.241118
 O         3.516563        -0.918267        -0.661603
 H         0.865655         2.213266        -1.109591
 H         2.165679         3.041669        -0.032455
 H         2.544777         1.909687        -1.371088
 H         3.184613         1.679264         1.800419
 H         1.466983         1.456845         2.360208
 H         3.949068        -0.623268         3.059048
 H         0.821142        -2.231678         1.701210
 H         0.047200        -0.532268         2.174446
 H         0.441055        -0.512457        -0.672276
 H         3.994396        -0.118984        -0.940915
