19
Iteration:  4879charge 0 multiplicity 1
 C         1.777364         2.137908        -0.490355
 C         1.900307         0.972763         0.412998
 C         2.375497         0.998710         1.798162
 C         2.345516        -0.559419         1.778576
 O         3.175122        -1.351183         2.597961
 C         0.915176        -1.108133         1.517884
 C         1.044860        -0.255985         0.197874
 C         2.560567        -0.350938         0.154590
 O         3.617848        -0.851358        -0.525651
 H         0.719787         2.393310        -0.809432
 H         2.029984         3.092629         0.065422
 H         2.240216         2.042457        -1.494341
 H         3.517862         1.316644         1.750034
 H         1.742288         1.428340         2.516832
 H         4.041118        -0.955735         2.363177
 H         0.966146        -2.161784         1.191064
 H         0.056301        -1.052305         2.121423
 H         0.356777        -0.109190        -0.583244
 H         3.384322        -1.757442        -0.950630
