19
Iteration:  1912charge 0 multiplicity 1
 C         1.982271         2.068846        -0.479566
 C         1.949833         0.943875         0.416942
 C         2.374159         1.002865         1.850848
 C         2.488042        -0.579981         1.759130
 O         3.321995        -1.285152         2.643897
 C         0.989748        -0.905829         1.677594
 C         1.006227        -0.245504         0.313321
 C         2.563589        -0.458491         0.187536
 O         3.154278        -0.943015        -0.962449
 H         2.170514         1.661272        -1.504890
 H         1.019939         2.659475        -0.483208
 H         2.811868         2.769598        -0.178784
 H         3.356142         1.425271         1.779923
 H         1.795875         1.420797         2.721639
 H         3.702969        -0.613558         3.265943
 H         0.610623        -1.984790         1.725769
 H         0.375431        -0.327408         2.411328
 H         0.240875        -0.376690        -0.443852
 H         2.819086        -1.881519        -1.162289
