19
Iteration:     9
 C         1.788198         2.034065        -0.633113
 C         1.942106         0.939748         0.367563
 C         2.298845         1.016308         1.881139
 C         2.357622        -0.546202         1.803906
 O         3.355116        -1.231562         2.576511
 C         0.936680        -1.046385         1.660204
 C         1.132225        -0.387229         0.239979
 C         2.564878        -0.378744         0.192372
 O         3.449577        -0.802113        -0.718367
 H         1.661644         1.618465        -1.661908
 H         0.808051         2.601662        -0.566473
 H         2.597134         2.946117        -0.728653
 H         3.186623         1.807733         1.953265
 H         1.473256         1.328362         2.483508
 H         2.961650        -1.086597         3.435304
 H         0.672201        -2.150941         1.662973
 H         0.283584        -0.664170         2.417101
 H         0.477362        -0.635724        -0.510823
 H         3.540515        -1.785345        -0.610345
