19
Iteration:   504
 C         1.670476         1.942931        -0.675597
 C         1.889527         0.945703         0.352409
 C         2.279993         1.048282         1.773684
 C         2.419933        -0.535645         1.810557
 O         3.190274        -1.347557         2.719377
 C         1.005729        -1.030048         1.648598
 C         1.082243        -0.313063         0.248211
 C         2.576698        -0.341303         0.206217
 O         3.609035        -0.809611        -0.615504
 H         0.696688         2.548184        -0.461745
 H         2.629010         2.587754        -0.868043
 H         1.438542         1.349671        -1.572878
 H         3.328964         1.453482         2.011339
 H         1.420686         1.501721         2.402524
 H         4.055310        -1.188018         2.338332
 H         0.911274        -1.984354         1.284652
 H         0.224102        -0.758429         2.274284
 H         0.286568        -0.518112        -0.485848
 H         3.899729        -0.068487        -1.185978
