19
Iteration:  3571
 C         1.774295         2.106486        -0.627741
 C         1.760328         0.951892         0.338602
 C         2.367120         1.037579         1.888238
 C         2.398261        -0.465220         1.812901
 O         3.254322        -1.327278         2.521472
 C         0.894630        -0.995779         1.585427
 C         1.001764        -0.408202         0.141294
 C         2.534404        -0.377551         0.217121
 O         3.607870        -1.004362        -0.440355
 H         2.861427         2.598293        -0.619110
 H         1.575690         1.962846        -1.722434
 H         0.970911         2.778011        -0.176032
 H         3.313052         1.581594         1.691133
 H         1.828156         1.584269         2.672195
 H         4.189091        -1.080398         2.359984
 H         0.835604        -2.067459         1.577932
 H         0.056869        -0.435258         2.190222
 H         0.512442        -0.536436        -0.786057
 H         4.058774        -0.269680        -0.991834
