19
Iteration:  3724charge 0 multiplicity 1
 C         1.934607         2.055356        -0.650502
 C         1.883804         0.887311         0.354243
 C         2.258467         1.095298         1.883353
 C         2.403151        -0.527672         1.854271
 O         3.261364        -1.420020         2.465173
 C         0.872531        -0.950898         1.594221
 C         0.942581        -0.491077         0.189255
 C         2.523551        -0.425223         0.245763
 O         3.619698        -0.658533        -0.549565
 H         2.365467         2.956584        -0.202027
 H         2.288199         1.811228        -1.614769
 H         0.933230         2.451549        -0.751922
 H         3.243518         1.590489         1.804411
 H         1.345789         1.530169         2.395574
 H         3.735134        -1.032799         3.233360
 H         0.784008        -2.007165         1.712380
 H         0.007883        -0.460080         2.218912
 H         0.240204        -0.676681        -0.696344
 H         3.911751        -1.608830        -0.643898
