19
Iteration:  3549charge 0 multiplicity 1
 C         1.766778         2.056712        -0.707425
 C         1.964591         1.019831         0.369792
 C         2.142545         1.127348         1.897902
 C         2.376163        -0.580287         1.786392
 O         3.298341        -1.412320         2.420758
 C         0.942777        -0.966946         1.611046
 C         1.095700        -0.340368         0.263305
 C         2.598875        -0.362192         0.297861
 O         3.477395        -0.972562        -0.488673
 H         2.805277         2.626829        -0.806651
 H         1.890405         1.552100        -1.703131
 H         0.775275         2.630511        -0.730487
 H         3.086686         1.669144         2.129561
 H         1.341266         1.643176         2.430693
 H         4.155864        -0.963862         2.473501
 H         0.831992        -2.022854         1.427157
 H         0.128563        -0.537899         2.349315
 H         0.447419        -0.441974        -0.537671
 H         4.245238        -0.444157        -0.413354
