19
Iteration:  4562charge 0 multiplicity 1
 C         1.735940         2.045420        -0.581041
 C         1.998066         0.974558         0.471004
 C         2.395359         1.012494         1.936545
 C         2.375737        -0.559205         1.836451
 O         3.082559        -1.370380         2.826583
 C         0.973196        -1.158353         1.478115
 C         1.137483        -0.336337         0.157493
 C         2.586674        -0.311677         0.122661
 O         3.471936        -0.739155        -0.912311
 H         0.691617         2.359283        -0.578402
 H         2.213068         3.041750        -0.410270
 H         2.121040         1.990699        -1.608880
 H         3.512260         1.450856         2.017206
 H         1.812151         1.667222         2.668051
 H         3.498615        -0.746464         3.468496
 H         1.071687        -2.336676         1.405519
 H         0.293111        -0.857536         2.295012
 H         0.339952        -0.296550        -0.629252
 H         3.912431        -1.509981        -0.562249
