19
Iteration:  2592charge 0 multiplicity 1
 C         1.781470         2.055915        -0.624161
 C         1.962188         0.962066         0.450026
 C         2.250296         0.941903         1.914991
 C         2.332743        -0.537843         1.787432
 O         3.211588        -1.273144         2.499193
 C         0.968654        -1.045209         1.497085
 C         0.972074        -0.268709         0.266264
 C         2.589993        -0.352451         0.201428
 O         3.654623        -0.797316        -0.482637
 H         2.776413         2.199182        -1.050179
 H         1.300314         1.538786        -1.463905
 H         1.319911         3.012520        -0.482474
 H         3.297334         1.297425         2.160016
 H         1.397213         1.353121         2.507854
 H         3.762994        -1.545109         1.705053
 H         0.843817        -2.090455         1.393784
 H         0.155669        -0.747924         2.327035
 H         0.242825        -0.229448        -0.542851
 H         3.532978        -1.703553        -0.968700
