19
Iteration:  4531charge 0 multiplicity 1
 C         1.865786         2.193727        -0.460699
 C         1.908066         0.858450         0.312102
 C         2.154597         0.922524         1.905901
 C         2.399948        -0.577110         1.745381
 O         3.183398        -1.265052         2.780952
 C         0.978814        -0.984524         1.540412
 C         1.107265        -0.439646         0.134171
 C         2.620271        -0.451690         0.163753
 O         3.514096        -0.728463        -0.814114
 H         1.028649         2.691822         0.159962
 H         2.819372         2.686973        -0.128564
 H         1.667419         2.159048        -1.554268
 H         3.025265         1.635222         2.007398
 H         1.285581         1.250683         2.471840
 H         4.085316        -0.931966         2.867313
 H         0.790782        -2.119758         1.664604
 H         0.458643        -0.466965         2.308494
 H         0.389751        -0.528314        -0.741164
 H         3.643716        -1.725922        -0.869035
