19
Iteration:  1394charge 0 multiplicity 1
 C         1.783827         2.238325        -0.470365
 C         2.004378         0.926242         0.362131
 C         2.444137         1.033484         1.810753
 C         2.526439        -0.531211         1.823981
 O         3.359752        -1.241860         2.655895
 C         0.938895        -0.913588         1.682339
 C         1.047926        -0.221381         0.292569
 C         2.493121        -0.527365         0.153369
 O         3.221381        -1.126540        -0.890841
 H         2.758433         2.597876        -0.780417
 H         1.149974         1.907664        -1.287132
 H         1.278344         2.916339         0.271409
 H         3.303105         1.619733         1.752812
 H         1.658103         1.455299         2.524491
 H         4.178696        -0.743418         2.834890
 H         0.711216        -2.008594         1.450746
 H        -0.009805        -0.538915         2.363455
 H         0.454888        -0.247761        -0.540766
 H         3.128002        -2.109508        -0.938640
