19
Iteration:  2448
 C         1.846548         2.138872        -0.635421
 C         1.925989         0.978756         0.312185
 C         2.308173         1.043825         1.862087
 C         2.415662        -0.637230         1.827282
 O         3.174559        -1.394884         2.738968
 C         0.956286        -1.006729         1.605304
 C         1.039348        -0.333064         0.334943
 C         2.591468        -0.426880         0.185800
 O         3.501123        -0.761284        -0.795553
 H         1.210641         3.014900        -0.320041
 H         2.859353         2.373333        -0.938148
 H         1.339027         1.884093        -1.528606
 H         3.449926         1.442059         1.926858
 H         1.510498         1.473214         2.542351
 H         4.007191        -0.970752         2.937695
 H         0.728942        -2.061786         1.395318
 H         0.273546        -0.637415         2.416929
 H         0.240217        -0.439718        -0.400937
 H         3.340742        -1.655299        -1.274272
