19
Iteration:  2066
 C         1.960535         2.122474        -0.587292
 C         2.012684         0.948594         0.396254
 C         2.472495         0.959690         1.828139
 C         2.407639        -0.632378         1.792171
 O         3.368275        -1.258236         2.609684
 C         0.825693        -1.020233         1.688886
 C         0.956579        -0.254480         0.256874
 C         2.413432        -0.441679         0.221237
 O         3.258943        -0.853332        -0.795007
 H         1.619125         3.048887        -0.107192
 H         2.977851         2.298574        -0.837395
 H         1.404307         1.920726        -1.426284
 H         3.490059         1.327733         1.718521
 H         1.871224         1.482785         2.666876
 H         4.066369        -0.669764         2.909552
 H         0.746894        -2.119077         1.541630
 H         0.181432        -0.658733         2.524295
 H         0.225413        -0.228467        -0.569574
 H         3.556809        -1.787593        -0.860109
