19
Iteration:  1193
 C         1.697498         2.126307        -0.564539
 C         2.093144         0.974470         0.405369
 C         2.490841         1.076827         1.927534
 C         2.488404        -0.524572         1.750972
 O         3.268260        -1.222650         2.608975
 C         0.994053        -0.924911         1.651783
 C         1.062526        -0.270697         0.249027
 C         2.561779        -0.492013         0.173901
 O         3.230636        -1.113050        -0.820524
 H         0.849151         1.742875        -1.123063
 H         1.545586         3.014412         0.009029
 H         2.426644         2.384570        -1.312293
 H         3.411950         1.567520         2.103480
 H         1.829378         1.540639         2.763516
 H         3.746884        -0.574092         3.089224
 H         1.002869        -1.996238         1.464657
 H         0.158399        -0.655172         2.397851
 H         0.317788        -0.204061        -0.481175
 H         2.845948        -2.024945        -0.908101
