19
Iteration:  4494
 C         1.925245         2.179992        -0.572446
 C         1.791122         0.937113         0.382076
 C         2.201718         1.018072         1.943500
 C         2.323634        -0.605019         1.793563
 O         3.245384        -1.192473         2.564437
 C         0.978213        -1.238696         1.461997
 C         1.031831        -0.338499         0.176653
 C         2.521298        -0.361954         0.240648
 O         3.603139        -0.835188        -0.508788
 H         1.670892         3.007498        -0.012683
 H         2.910783         2.368877        -0.977159
 H         1.276284         2.263809        -1.438876
 H         3.305041         1.301339         2.059009
 H         1.694706         1.545071         2.838676
 H         3.993994        -0.970511         1.965632
 H         1.217340        -2.238491         1.094153
 H         0.128385        -1.301153         2.224021
 H         0.500926        -0.342427        -0.722398
 H         3.217059        -1.266697        -1.266016
