19
Iteration:   184charge 0 multiplicity 1
 C         1.779965         2.112547        -0.663893
 C         1.856886         0.965587         0.365104
 C         2.372276         1.014371         1.859270
 C         2.383034        -0.583002         1.797661
 O         3.276596        -1.257965         2.692761
 C         0.944156        -0.986534         1.659008
 C         1.077151        -0.518093         0.192658
 C         2.539463        -0.388182         0.136773
 O         3.457428        -0.853765        -0.783360
 H         1.138378         1.818164        -1.505062
 H         1.381817         2.910629        -0.030563
 H         2.833853         2.389766        -0.996083
 H         3.393037         1.536445         2.025863
 H         1.726716         1.493508         2.594212
 H         3.621761        -0.541385         3.262190
 H         0.943175        -2.129303         1.856035
 H         0.141657        -0.526070         2.422157
 H         0.222819        -0.446092        -0.458933
 H         4.186356        -1.109966        -0.137744
