19
Iteration:  2211
 C         2.010151         2.076173        -0.609956
 C         1.801819         0.960807         0.378299
 C         2.390484         0.995976         1.828795
 C         2.337470        -0.535609         1.778415
 O         3.346131        -1.383143         2.366748
 C         0.902407        -0.944863         1.782930
 C         0.994320        -0.315771         0.207906
 C         2.444167        -0.391515         0.255338
 O         3.437837        -0.843426        -0.580107
 H         2.747766         1.818939        -1.306577
 H         1.104052         2.268737        -1.169330
 H         2.124187         2.928572         0.025590
 H         3.392028         1.482916         1.868255
 H         1.729784         1.585363         2.657838
 H         4.094642        -0.802000         2.581475
 H         0.821732        -2.025769         1.820306
 H         0.247684        -0.522505         2.627722
 H         0.306069        -0.575651        -0.560863
 H         3.088146        -1.662917        -0.842412
