19
Iteration:  2682charge 0 multiplicity 1
 C         1.820085         2.191385        -0.520669
 C         1.961141         0.926132         0.313573
 C         2.282260         0.917692         1.927932
 C         2.412553        -0.620747         1.806610
 O         3.200772        -1.063713         2.866533
 C         0.993258        -1.166401         1.436059
 C         1.110084        -0.374036         0.115965
 C         2.647775        -0.351074         0.158107
 O         3.426824        -0.883626        -0.726489
 H         2.759275         2.443764        -0.896011
 H         1.179760         2.034832        -1.368828
 H         1.475605         3.056651         0.046994
 H         3.266221         1.368209         2.052806
 H         1.454830         1.350057         2.537194
 H         3.278504        -1.998207         3.191717
 H         1.005315        -2.252448         1.255971
 H         0.146239        -0.970484         2.177650
 H         0.353082        -0.225670        -0.664964
 H         3.092418        -0.903383        -1.662644
