19
Iteration:  4177
 C         1.875669         2.249238        -0.348317
 C         1.891938         0.914335         0.372294
 C         2.051188         0.955861         1.866398
 C         2.357034        -0.530666         1.897861
 O         3.200774        -1.226292         2.866380
 C         0.972414        -1.109544         1.479871
 C         1.126111        -0.545957         0.062019
 C         2.649170        -0.368937         0.094762
 O         3.634588        -0.797232        -0.945676
 H         2.473651         2.910923         0.263825
 H         2.461415         2.127603        -1.331479
 H         0.818310         2.678358        -0.503431
 H         2.827684         1.621749         2.271922
 H         1.117687         1.234489         2.328634
 H         3.558006        -0.468217         3.369810
 H         1.091321        -2.241061         1.329816
 H         0.082269        -0.832158         2.021328
 H         0.506126        -0.619955        -0.779473
 H         3.394943        -1.792153        -1.051435
