19
Iteration:    80
 C         1.822292         2.218817        -0.628034
 C         1.880802         0.936764         0.303792
 C         2.421774         1.016468         1.810513
 C         2.392832        -0.580407         1.879432
 O         3.335746        -1.117932         2.629738
 C         0.959597        -1.077618         1.663756
 C         0.983633        -0.440219         0.203273
 C         2.432774        -0.468064         0.182855
 O         3.446707        -0.941522        -0.647958
 H         2.465769         2.260715        -1.537248
 H         0.825929         2.443432        -1.055025
 H         2.176816         3.064370        -0.146970
 H         3.361158         1.426968         1.709830
 H         1.813384         1.414946         2.685739
 H         3.273949        -2.062782         2.760968
 H         1.072804        -2.120551         1.327871
 H         0.168595        -0.841739         2.451871
 H         0.147657        -0.565268        -0.651908
 H         4.220510        -0.323657        -0.484236
