19
Iteration:  4575
 C         1.704343         2.054178        -0.661335
 C         2.016868         1.028334         0.418611
 C         2.493294         0.954305         1.949989
 C         2.426212        -0.585854         1.834162
 O         3.033835        -1.336656         2.796439
 C         1.086721        -1.114652         1.414174
 C         1.045991        -0.347335         0.176590
 C         2.577824        -0.316374         0.194476
 O         3.410864        -0.685048        -0.782176
 H         0.577441         2.033348        -0.873994
 H         2.075228         2.979325        -0.178221
 H         2.174512         1.644033        -1.566980
 H         3.656640         1.077646         1.989782
 H         1.964740         1.356572         2.846148
 H         3.474201        -0.772017         3.441352
 H         1.238618        -2.266070         1.183222
 H         0.169639        -1.068302         1.983651
 H         0.303953        -0.102856        -0.656109
 H         3.800710        -1.581204        -0.564027
