19
Iteration:  1171
 C         1.709498         2.117709        -0.636510
 C         1.936794         1.001279         0.332136
 C         2.532103         1.016987         1.748893
 C         2.493098        -0.513466         1.853984
 O         3.240134        -1.373339         2.729965
 C         1.073538        -0.998817         1.708362
 C         1.018022        -0.184231         0.369565
 C         2.508467        -0.363616         0.111419
 O         3.285155        -1.020618        -0.793848
 H         1.206368         1.662247        -1.474611
 H         1.347056         3.009975        -0.168110
 H         2.702920         2.250622        -0.982369
 H         3.523734         1.378928         1.641345
 H         2.018078         1.757718         2.533996
 H         3.961942        -0.895740         3.244622
 H         0.931351        -2.035319         1.472944
 H         0.256350        -0.621659         2.377784
 H         0.413229        -0.433810        -0.422121
 H         2.745524        -1.668642        -1.298849
