19
Iteration:   808
 C         1.745690         2.200246        -0.577450
 C         1.934455         0.997952         0.329839
 C         2.486728         1.018293         1.734852
 C         2.523495        -0.490035         1.820119
 O         3.197040        -1.247219         2.716803
 C         1.022730        -1.026284         1.711819
 C         1.040982        -0.397661         0.300957
 C         2.482250        -0.447398         0.120097
 O         3.374660        -1.039284        -0.752801
 H         1.373543         3.063835         0.065241
 H         2.637184         2.595288        -1.100561
 H         0.976170         1.952364        -1.365221
 H         3.557791         1.217793         1.824167
 H         2.020010         1.618105         2.552449
 H         3.841608        -0.580646         3.080625
 H         1.100224        -2.136561         1.550130
 H         0.261277        -0.767620         2.392125
 H         0.207601        -0.272611        -0.395953
 H         2.813773        -1.361043        -1.553600
