19
Iteration:   550
 C         1.820807         2.078916        -0.572137
 C         1.791852         0.894986         0.350396
 C         2.271035         1.000693         1.729224
 C         2.475555        -0.492441         1.808450
 O         3.363150        -1.237456         2.593613
 C         0.831397        -1.030864         1.598342
 C         1.019374        -0.462321         0.253758
 C         2.510801        -0.429037         0.250476
 O         3.533450        -0.882493        -0.606303
 H         0.747659         2.192704        -0.967475
 H         2.280410         2.984418         0.034854
 H         2.527630         1.724888        -1.360936
 H         3.212070         1.613848         1.689909
 H         1.530077         1.547013         2.550181
 H         3.973539        -0.579748         2.949737
 H         0.912088        -2.036910         1.638711
 H         0.126818        -0.567032         2.234231
 H         0.457996        -0.616669        -0.822761
 H         4.006473        -0.059953        -1.008145
