19
Iteration:  4055charge 0 multiplicity 1
 C         1.784824         2.118976        -0.492243
 C         1.848183         0.914352         0.388817
 C         2.182221         0.909867         1.819541
 C         2.380868        -0.610223         1.772919
 O         3.138673        -1.231185         2.777103
 C         0.929946        -1.087403         1.454311
 C         1.126840        -0.375909         0.067027
 C         2.619805        -0.412513         0.214313
 O         3.681385        -0.665177        -0.646566
 H         2.786685         2.600420        -0.612138
 H         1.299381         1.778488        -1.428797
 H         1.086164         2.891755         0.037706
 H         3.141283         1.388504         2.007401
 H         1.404079         1.423721         2.483508
 H         4.079412        -1.224227         2.537568
 H         0.928633        -2.191261         1.390339
 H         0.147616        -0.624308         2.153433
 H         0.520778        -0.524302        -0.875528
 H         3.786081        -1.640524        -0.719095
