19
Iteration:  3302charge 0 multiplicity 1
 C         1.869594         2.083272        -0.619951
 C         2.035315         1.023803         0.434209
 C         2.239986         0.945487         1.917236
 C         2.401134        -0.577482         1.845480
 O         3.253556        -1.196440         2.812539
 C         0.944177        -1.069108         1.493655
 C         1.058234        -0.238847         0.273185
 C         2.615940        -0.382217         0.184040
 O         3.414580        -0.845260        -0.875155
 H         2.366877         3.013292        -0.296593
 H         2.258761         1.724428        -1.601541
 H         0.835912         2.195758        -0.963895
 H         3.073040         1.527718         2.269937
 H         1.327132         1.332248         2.360177
 H         3.147532        -2.136314         2.591965
 H         1.007303        -2.216569         1.314934
 H         0.197477        -0.846789         2.180447
 H         0.561156        -0.520053        -0.680234
 H         3.340604        -1.794084        -0.747394
