19
Iteration:  4868charge 0 multiplicity 1
 C         1.837308         2.135381        -0.490186
 C         1.895001         0.989075         0.441109
 C         2.371009         0.984499         1.891971
 C         2.346677        -0.619489         1.691878
 O         3.208733        -1.210800         2.592506
 C         0.874535        -1.158951         1.443965
 C         0.964561        -0.312782         0.200170
 C         2.461178        -0.360762         0.178517
 O         3.662064        -0.877579        -0.515607
 H         0.743612         2.279698        -0.685152
 H         2.358383         3.001181         0.026702
 H         2.502168         1.974682        -1.368542
 H         3.453075         1.443004         1.735508
 H         2.009572         1.629748         2.627060
 H         4.109083        -1.082659         2.297207
 H         0.931407        -2.225475         1.171722
 H         0.208714        -0.912045         2.209145
 H         0.224447        -0.182100        -0.508924
 H         3.292964        -1.380937        -1.260628
