19
Iteration:  4753charge 0 multiplicity 1
 C         1.700015         2.165579        -0.463999
 C         1.936949         0.877164         0.340496
 C         2.430584         1.000314         1.796946
 C         2.353489        -0.556936         1.778577
 O         3.133600        -1.183357         2.820527
 C         0.985496        -1.099688         1.476495
 C         1.027442        -0.400839         0.139812
 C         2.556390        -0.507113         0.096363
 O         3.668674        -0.674491        -0.709116
 H         1.247720         2.732841         0.368131
 H         2.617421         2.593410        -0.833170
 H         0.965406         2.155962        -1.267987
 H         3.460457         1.158314         1.908316
 H         1.770665         1.466714         2.594510
 H         2.738394        -2.017962         3.076753
 H         0.935176        -2.182779         1.423913
 H         0.248753        -0.732277         2.254749
 H         0.162385        -0.528226        -0.599485
 H         3.913783        -1.633281        -0.932817
