19
Iteration:   352
 C         1.688165         2.028489        -0.711363
 C         1.893281         0.944991         0.394070
 C         2.265324         0.997819         1.893994
 C         2.377954        -0.523131         1.787002
 O         3.239160        -1.112105         2.637674
 C         1.000698        -1.017082         1.634695
 C         1.086968        -0.429402         0.233970
 C         2.631608        -0.383049         0.190612
 O         3.536140        -0.865515        -0.692424
 H         1.124324         2.861687        -0.250293
 H         2.647739         2.388515        -1.083360
 H         1.127203         1.612493        -1.476021
 H         3.279607         1.266351         2.026501
 H         1.620808         1.393670         2.700536
 H         3.108738        -2.079150         2.661682
 H         1.022269        -2.062642         1.414507
 H         0.221444        -0.835859         2.537437
 H         0.468031        -0.741238        -0.530988
 H         4.420656        -0.560015        -0.447356
