19
Iteration:   588
 C         1.837905         2.099989        -0.608910
 C         1.913449         0.975266         0.384797
 C         2.211461         0.942888         1.868167
 C         2.458535        -0.501669         1.755206
 O         3.263177        -1.121847         2.692332
 C         1.058834        -1.142470         1.598921
 C         1.067276        -0.376795         0.262122
 C         2.607253        -0.363409         0.186283
 O         3.315911        -0.976292        -0.779491
 H         1.062619         1.956008        -1.324025
 H         1.647936         3.088350        -0.390117
 H         2.715660         2.089297        -1.248133
 H         3.087985         1.513725         2.189824
 H         1.369936         1.220405         2.489569
 H         3.710419        -0.510437         3.348272
 H         1.045085        -2.320464         1.659620
 H         0.195347        -0.863507         2.304666
 H         0.552317        -0.514641        -0.616686
 H         4.257153        -0.682605        -0.627219
