19
Iteration:  1506charge 0 multiplicity 1
 C         1.936324         2.001984        -0.608974
 C         1.866095         0.952499         0.452149
 C         2.561294         1.036037         1.732443
 C         2.520695        -0.576653         1.806578
 O         3.257237        -1.420226         2.553192
 C         1.075788        -0.855354         1.805410
 C         0.897060        -0.215661         0.416254
 C         2.377055        -0.496079         0.195379
 O         3.190802        -0.819458        -0.866567
 H         1.181419         2.780061        -0.700596
 H         2.919699         2.517569        -0.620789
 H         1.867103         1.625647        -1.633327
 H         3.588214         1.370082         1.649036
 H         2.089995         1.663893         2.550938
 H         4.187527        -1.064119         2.666041
 H         1.079823        -2.004892         1.686401
 H         0.302589        -0.438947         2.624338
 H        -0.024699        -0.086668        -0.289739
 H         3.584484        -1.677514        -0.757943
