19
Iteration:  3742charge 0 multiplicity 1
 C         1.819078         2.018283        -0.743516
 C         1.889912         1.045871         0.384040
 C         2.229678         1.000459         1.845534
 C         2.365086        -0.583293         1.765355
 O         3.198921        -1.458244         2.567419
 C         0.946223        -1.027328         1.677655
 C         1.074426        -0.320561         0.182959
 C         2.552862        -0.355736         0.222711
 O         3.609734        -0.682717        -0.520039
 H         2.527398         2.837160        -0.530735
 H         2.217614         1.547925        -1.689354
 H         0.814286         2.471111        -0.916775
 H         3.267580         1.385095         2.132787
 H         1.413961         1.318099         2.542543
 H         3.998661        -0.923102         2.768875
 H         0.713716        -2.120362         1.534336
 H         0.207421        -0.700469         2.393773
 H         0.412308        -0.204592        -0.649719
 H         3.733613        -1.669681        -0.602744
