19
Iteration:   820charge 0 multiplicity 1
 C         1.711303         2.128437        -0.508731
 C         2.002264         0.945627         0.368138
 C         2.520114         1.094585         1.781082
 C         2.397500        -0.499790         1.816593
 O         3.208177        -1.246583         2.709562
 C         1.012796        -1.022828         1.678758
 C         1.038579        -0.363903         0.315298
 C         2.553693        -0.379074         0.100548
 O         3.346760        -1.042586        -0.826523
 H         0.953359         2.896061        -0.196344
 H         2.675566         2.551119        -0.845281
 H         1.262714         1.717527        -1.416643
 H         3.549731         1.455266         1.578859
 H         1.963806         1.737597         2.487906
 H         3.950643        -0.837312         3.210339
 H         0.899570        -2.111923         1.761485
 H         0.418565        -0.556474         2.415319
 H         0.411153        -0.413683        -0.512784
 H         2.971140        -1.638205        -1.476399
