19
Iteration:   650charge 0 multiplicity 1
 C         1.683473         2.119961        -0.594267
 C         1.930234         0.888793         0.352952
 C         2.321747         1.010412         1.796661
 C         2.489457        -0.552168         1.786241
 O         3.151539        -1.197972         2.780368
 C         1.051033        -0.968620         1.653977
 C         1.092419        -0.390429         0.257495
 C         2.591046        -0.464565         0.136757
 O         3.407593        -0.962545        -0.828646
 H         2.167338         1.895594        -1.542938
 H         0.592347         2.423110        -0.596853
 H         2.289295         2.927177        -0.037258
 H         3.317462         1.368084         1.906037
 H         1.565774         1.457179         2.532514
 H         4.018830        -0.859032         3.117405
 H         1.033263        -2.019324         1.803248
 H         0.403119        -0.451050         2.276009
 H         0.416382        -0.586478        -0.473228
 H         4.101467        -0.303171        -1.139852
