19
Iteration:  4542charge 0 multiplicity 1
 C         1.783282         2.147560        -0.450916
 C         1.936961         0.897624         0.353785
 C         2.188476         0.912772         1.820309
 C         2.461612        -0.570932         1.871514
 O         3.119377        -1.314064         2.767181
 C         0.979951        -0.975680         1.567814
 C         1.103106        -0.356265         0.173730
 C         2.669452        -0.453923         0.205688
 O         3.520435        -0.741146        -0.927568
 H         0.845859         2.809819        -0.343446
 H         2.624520         2.874247        -0.256412
 H         1.907763         2.069098        -1.554337
 H         3.129785         1.455649         2.160321
 H         1.408055         1.178103         2.537226
 H         3.831166        -0.741549         3.084853
 H         0.866505        -2.126019         1.478007
 H         0.148387        -0.582049         2.127334
 H         0.349079        -0.600213        -0.647172
 H         3.949251        -1.653402        -0.774277
