19
Iteration:  3071charge 0 multiplicity 1
 C         1.749090         2.155756        -0.610470
 C         1.939229         1.005163         0.333865
 C         2.396527         1.057958         1.840708
 C         2.413459        -0.558851         1.882992
 O         3.034699        -1.359092         2.958229
 C         1.054118        -1.110886         1.554348
 C         1.172063        -0.347288         0.143380
 C         2.667748        -0.348018         0.258204
 O         3.373895        -0.813578        -0.894349
 H         2.360288         2.990866        -0.133544
 H         2.051407         1.881325        -1.619801
 H         0.682411         2.417617        -0.714795
 H         3.437093         1.435511         1.884496
 H         1.675275         1.536518         2.482610
 H         3.966971        -1.494717         2.668742
 H         1.278523        -2.255921         1.346222
 H         0.319017        -0.789059         2.246948
 H         0.824464        -0.699478        -0.813356
 H         2.925011        -1.485447        -1.440186
