19
Iteration:  2573
 C         1.874891         2.055392        -0.687444
 C         1.947109         1.012718         0.396603
 C         2.209183         1.062614         1.933465
 C         2.413902        -0.537709         1.760574
 O         3.293880        -1.427644         2.579099
 C         0.853089        -1.042364         1.623024
 C         1.050728        -0.323603         0.141318
 C         2.510086        -0.370277         0.239640
 O         3.567248        -0.755882        -0.563059
 H         2.658639         2.698427        -0.866199
 H         1.496026         1.726292        -1.630171
 H         1.064197         2.611904        -0.196760
 H         3.119511         1.562511         2.291403
 H         1.380640         1.293161         2.656265
 H         4.225228        -1.347740         2.242297
 H         0.724509        -2.077422         1.385784
 H         0.076773        -0.748865         2.224222
 H         0.413834        -0.278348        -0.718387
 H         3.532085        -1.765347        -0.771196
