19
Iteration:   483charge 0 multiplicity 1
 C         1.647007         2.011742        -0.749260
 C         1.932336         0.938568         0.422405
 C         2.243468         1.113908         1.947657
 C         2.483395        -0.479616         1.825507
 O         3.177493        -1.304726         2.747866
 C         0.965687        -1.052683         1.557282
 C         1.139517        -0.455275         0.160199
 C         2.632810        -0.358003         0.296821
 O         3.520719        -0.870826        -0.718194
 H         1.081718         2.886282        -0.292170
 H         2.631676         2.417149        -1.206959
 H         0.990033         1.703866        -1.557143
 H         3.198424         1.699234         1.977720
 H         1.397066         1.415958         2.699604
 H         4.060084        -1.488508         2.328245
 H         1.124243        -2.059598         1.544492
 H         0.155636        -0.730325         2.161865
 H         0.520244        -0.546602        -0.777556
 H         3.911113        -0.103504        -1.113932
