19
Iteration:  2830
 C         1.837893         2.099923        -0.569932
 C         2.021575         0.948812         0.393857
 C         2.188227         0.982911         1.959916
 C         2.384086        -0.543576         1.814676
 O         3.329092        -1.209548         2.668848
 C         0.881071        -0.991725         1.513092
 C         1.152473        -0.308096         0.130619
 C         2.592469        -0.444682         0.277040
 O         3.366481        -0.940866        -0.760735
 H         2.615213         2.872161        -0.300435
 H         2.056330         1.850110        -1.602451
 H         0.840340         2.483800        -0.585027
 H         3.123209         1.498364         2.347786
 H         1.322028         1.303022         2.599695
 H         3.409990        -2.164813         2.451974
 H         0.857803        -2.152169         1.526997
 H         0.043131        -0.650976         2.085562
 H         0.656286        -0.321878        -0.811109
 H         4.026004        -0.219698        -0.718235
