19
Iteration:  2521charge 0 multiplicity 1
 C         1.883706         2.141268        -0.512983
 C         1.985703         0.956866         0.387550
 C         2.381560         0.940025         1.810604
 C         2.433892        -0.648746         1.808470
 O         3.148448        -1.206828         2.870127
 C         1.022658        -1.089587         1.517900
 C         0.958623        -0.382556         0.171255
 C         2.495834        -0.462970         0.114937
 O         3.477301        -0.741070        -0.842433
 H         2.254416         3.001472         0.157041
 H         2.602844         2.142728        -1.371920
 H         0.837988         2.544288        -0.774652
 H         3.340270         1.413243         1.965731
 H         1.574225         1.362342         2.399823
 H         3.686039        -0.524765         3.346179
 H         0.932687        -2.264237         1.408727
 H         0.138094        -0.862618         2.172835
 H         0.042551        -0.379108        -0.378113
 H         3.408135        -1.703102        -1.189233
