19
Iteration:  1199charge 0 multiplicity 1
 C         1.699187         2.169641        -0.540995
 C         2.120210         0.968593         0.366878
 C         2.457209         1.045995         1.964446
 C         2.476092        -0.505472         1.745082
 O         3.302272        -1.199989         2.596416
 C         0.990597        -0.914938         1.657260
 C         1.089924        -0.256621         0.255563
 C         2.491009        -0.539109         0.182619
 O         3.224509        -1.118101        -0.816884
 H         0.791756         1.805169        -1.069748
 H         1.523111         3.076922         0.103952
 H         2.529065         2.226808        -1.302270
 H         3.478523         1.586530         2.065268
 H         1.715714         1.418133         2.643583
 H         3.870255        -0.533991         3.066456
 H         0.831895        -2.032350         1.499361
 H         0.202560        -0.523662         2.278388
 H         0.425860        -0.417478        -0.668594
 H         3.086067        -2.122012        -0.910295
