19
Iteration:  2271
 C         1.913851         2.067545        -0.613144
 C         1.943837         0.966262         0.360981
 C         2.428021         1.010836         1.919173
 C         2.468541        -0.507958         1.820180
 O         3.154170        -1.338617         2.760851
 C         0.971186        -1.005370         1.624903
 C         1.084089        -0.397680         0.261881
 C         2.570215        -0.393238         0.215319
 O         3.245562        -0.774330        -0.915508
 H         2.109244         1.834209        -1.710803
 H         0.920901         2.568167        -0.532123
 H         2.734186         2.810071        -0.476402
 H         3.490138         1.472260         1.975621
 H         1.719116         1.418475         2.657960
 H         4.058753        -1.169410         2.982806
 H         0.962887        -2.131148         1.646966
 H         0.184813        -0.513873         2.185615
 H         0.342924        -0.581985        -0.574541
 H         3.287041        -1.765809        -0.998390
