19
Iteration:  2298charge 0 multiplicity 1
 C         1.873725         2.090170        -0.453653
 C         1.907501         0.912417         0.415783
 C         2.364023         1.028572         1.771947
 C         2.477294        -0.532315         1.812861
 O         3.067907        -1.304987         2.857577
 C         1.066123        -0.974258         1.677295
 C         1.061125        -0.336029         0.265532
 C         2.567056        -0.460933         0.105694
 O         3.424728        -0.846454        -1.011769
 H         1.336542         1.874724        -1.417363
 H         1.260148         2.912287        -0.032135
 H         2.852027         2.539870        -0.722155
 H         3.360483         1.325893         1.762597
 H         1.701642         1.573596         2.470412
 H         3.974795        -1.116650         3.057800
 H         0.864797        -2.027011         1.721618
 H         0.357768        -0.406202         2.339011
 H         0.249570        -0.459400        -0.399038
 H         3.127005        -1.512923        -1.704911
