19
Iteration:  2037
 C         1.938642         2.017871        -0.626125
 C         1.941188         1.010543         0.473155
 C         2.415585         1.017538         1.867329
 C         2.451247        -0.536775         1.749695
 O         3.295378        -1.398016         2.481738
 C         0.958051        -0.936467         1.699586
 C         0.930235        -0.255025         0.355229
 C         2.363207        -0.341055         0.131030
 O         3.379432        -0.876269        -0.668235
 H         1.024784         2.662960        -0.731426
 H         2.962090         2.491411        -0.371810
 H         2.189024         1.499688        -1.666703
 H         3.404821         1.480172         1.801141
 H         1.754345         1.475213         2.594947
 H         4.252926        -1.362933         2.184633
 H         0.964606        -2.013950         1.721458
 H         0.196398        -0.587106         2.471188
 H        -0.005060        -0.069692        -0.263126
 H         3.246657        -1.888798        -0.800379
