19
Iteration:  3610
 C         1.729321         2.156777        -0.547248
 C         1.976452         0.900835         0.258202
 C         2.313739         1.012659         1.788494
 C         2.395130        -0.635664         1.815524
 O         3.149759        -1.168415         2.898888
 C         0.863015        -1.060587         1.595307
 C         1.052643        -0.335106         0.216214
 C         2.615013        -0.435895         0.120775
 O         3.636675        -0.896478        -0.725737
 H         2.647447         2.612849        -0.689036
 H         1.221195         2.071241        -1.499414
 H         1.280477         2.863271         0.096438
 H         3.349975         1.357648         1.787029
 H         1.559840         1.535212         2.451100
 H         3.936794        -1.604071         2.518057
 H         0.811970        -2.172238         1.394256
 H         0.199088        -0.632219         2.297946
 H         0.443825        -0.446139        -0.701029
 H         3.397818        -0.770335        -1.626450
