19
Iteration:  1159
 C         1.812892         2.150377        -0.690141
 C         1.891905         0.981984         0.359555
 C         2.567638         1.070564         1.754389
 C         2.545845        -0.575611         1.804317
 O         3.220782        -1.371022         2.756591
 C         1.027007        -0.910586         1.734605
 C         0.959287        -0.316916         0.339170
 C         2.440200        -0.481486         0.194350
 O         3.302835        -0.925505        -0.811409
 H         1.340947         1.883065        -1.628254
 H         1.081742         2.918285        -0.418211
 H         2.704431         2.657675        -0.923012
 H         3.589000         1.393292         1.607726
 H         2.059138         1.561153         2.666606
 H         4.042544        -0.913798         2.910083
 H         1.056110        -2.010454         1.579962
 H         0.444981        -0.755152         2.689988
 H         0.240231        -0.480681        -0.390084
 H         2.892675        -1.518610        -1.414150
