19
Iteration:  2476
 C         1.876757         2.069017        -0.485985
 C         2.002767         0.905025         0.390705
 C         2.292194         1.033511         1.953594
 C         2.456155        -0.516998         1.833919
 O         3.027433        -1.289387         2.856803
 C         1.099774        -0.986686         1.520567
 C         1.151041        -0.445664         0.182092
 C         2.595048        -0.414448         0.094517
 O         3.356778        -0.747849        -0.944636
 H         1.615611         3.041005        -0.068134
 H         2.727723         2.152162        -1.213708
 H         0.914017         1.811502        -1.104274
 H         3.258744         1.454925         2.087083
 H         1.539736         1.427069         2.632949
 H         3.982134        -1.094179         2.968215
 H         0.955413        -2.134308         1.555522
 H         0.396221        -0.572860         2.266599
 H         0.456290        -0.480816        -0.624028
 H         3.090415        -1.713745        -1.214029
