19
Iteration:   443
 C         1.817933         2.097311        -0.510924
 C         1.790256         0.881190         0.268720
 C         2.178826         1.028792         1.771854
 C         2.450750        -0.557016         1.782862
 O         3.295920        -1.068359         2.820704
 C         0.967482        -1.132645         1.571399
 C         1.050902        -0.386808         0.175662
 C         2.590223        -0.513911         0.189052
 O         3.502135        -0.859963        -0.732613
 H         1.680108         2.904124         0.138865
 H         2.647598         2.284700        -1.126570
 H         0.922020         2.136015        -1.176656
 H         3.053779         1.607673         1.920265
 H         1.432597         1.336538         2.490512
 H         4.234958        -0.926165         2.710183
 H         0.994389        -2.241655         1.162500
 H         0.110800        -1.022731         2.406485
 H         0.312451        -0.490690        -0.748813
 H         4.454247        -0.722778        -0.413879
