19
Iteration:  2016charge 0 multiplicity 1
 C         1.914403         2.111689        -0.738591
 C         1.904684         0.975091         0.382829
 C         2.381002         1.069291         1.913413
 C         2.468402        -0.577873         1.836061
 O         3.269084        -1.526277         2.434591
 C         0.977983        -0.834680         1.766014
 C         0.956347        -0.245704         0.361210
 C         2.488464        -0.391486         0.302925
 O         3.369527        -0.884062        -0.686643
 H         0.824674         2.401155        -0.912984
 H         2.399826         3.099914        -0.354300
 H         2.324172         1.834874        -1.831450
 H         3.388249         1.563392         1.929375
 H         1.682309         1.521419         2.583618
 H         4.087879        -1.601497         1.930764
 H         0.843386        -1.896699         1.790797
 H         0.349223        -0.347362         2.531039
 H         0.399925        -0.642772        -0.543148
 H         3.155807        -1.631304        -1.216155
