19
Iteration:  2088
 C         1.957995         2.164977        -0.515334
 C         1.921182         0.910032         0.362639
 C         2.414111         0.978879         1.844247
 C         2.455427        -0.564905         1.819500
 O         3.282017        -1.294753         2.701127
 C         1.010736        -0.902543         1.691877
 C         0.974861        -0.339095         0.260804
 C         2.475175        -0.415702         0.128332
 O         3.291972        -0.926392        -0.956428
 H         1.998679         3.047843         0.159785
 H         2.827278         2.131051        -1.123086
 H         1.087795         2.218332        -1.058150
 H         3.415855         1.432139         1.914782
 H         1.646138         1.300890         2.649086
 H         3.649619        -0.792911         3.467787
 H         0.802026        -1.985592         1.655835
 H         0.398509        -0.381862         2.470818
 H         0.058422        -0.517763        -0.366195
 H         3.188386        -1.881004        -1.049425
