19
Iteration:   585
 C         1.838189         2.109510        -0.609144
 C         1.920062         0.965463         0.365484
 C         2.201457         0.932711         1.870698
 C         2.447236        -0.486069         1.775698
 O         3.270537        -1.139813         2.672514
 C         1.061003        -1.119393         1.609791
 C         1.073766        -0.394217         0.273892
 C         2.575238        -0.365256         0.192370
 O         3.337069        -0.980000        -0.776851
 H         1.045916         1.913856        -1.319106
 H         1.726627         3.146159        -0.269097
 H         2.738822         2.045362        -1.303071
 H         3.097905         1.445951         2.167694
 H         1.256981         1.274348         2.500450
 H         3.617349        -0.437339         3.244515
 H         1.110882        -2.218563         1.655184
 H         0.276177        -0.847403         2.273206
 H         0.512600        -0.520199        -0.626434
 H         4.258496        -0.588635        -0.648624
