19
Iteration:  4704
 C         1.743963         2.158537        -0.571869
 C         1.964932         0.992301         0.432009
 C         2.180551         1.016890         2.034530
 C         2.414433        -0.530698         1.843805
 O         3.267560        -1.249999         2.720170
 C         0.897648        -1.074150         1.448924
 C         1.138133        -0.311001         0.097341
 C         2.626454        -0.362528         0.234361
 O         3.550133        -0.917118        -0.726522
 H         0.764360         2.652471        -0.412113
 H         2.617804         2.851172        -0.656484
 H         1.747958         1.577716        -1.544978
 H         3.176561         1.617201         2.218852
 H         1.280483         1.333225         2.603048
 H         3.737754        -1.988472         2.252078
 H         0.954854        -2.242762         1.268982
 H         0.049306        -0.857329         2.128124
 H         0.615172        -0.378653        -0.874085
 H         3.160099        -1.538703        -1.344411
