19
Iteration:  3050charge 0 multiplicity 1
 C         1.792939         2.183131        -0.621638
 C         1.885395         0.980280         0.399853
 C         2.364011         0.983495         1.916597
 C         2.473726        -0.526246         1.849919
 O         3.081760        -1.291754         2.818473
 C         0.972528        -1.089984         1.518451
 C         1.173420        -0.383989         0.166898
 C         2.610838        -0.374629         0.223959
 O         3.454258        -0.878677        -0.822976
 H         2.185354         3.127438        -0.204316
 H         2.304519         1.828354        -1.523211
 H         0.721079         2.356748        -0.764407
 H         3.346919         1.453446         1.735143
 H         1.736097         1.473104         2.692145
 H         4.043174        -1.100103         2.858464
 H         1.198995        -2.201541         1.491595
 H         0.082566        -0.723698         2.060531
 H         0.425773        -0.379979        -0.561001
 H         2.875827        -1.357607        -1.400024
