19
Iteration:  2322charge 0 multiplicity 1
 C         1.781380         2.204649        -0.531308
 C         2.050898         0.944578         0.362158
 C         2.485338         0.868481         1.837583
 C         2.361810        -0.630304         1.792394
 O         3.212700        -1.223456         2.851912
 C         0.951777        -0.994356         1.623253
 C         1.033364        -0.312954         0.136811
 C         2.448284        -0.471918         0.154411
 O         3.435625        -0.846954        -0.826938
 H         0.965589         2.082621        -1.208109
 H         1.572287         3.157941        -0.033727
 H         2.678906         2.441124        -1.200739
 H         3.559125         1.161583         1.867509
 H         1.834573         1.394040         2.650862
 H         3.972824        -0.616346         2.891151
 H         0.992381        -2.129828         1.478978
 H         0.269351        -0.752217         2.513904
 H         0.271806        -0.381143        -0.678686
 H         2.927428        -1.516465        -1.425860
