19
Iteration:  3464charge 0 multiplicity 1
 C         1.902981         2.124327        -0.399568
 C         1.908762         0.807336         0.256004
 C         2.314501         0.988488         1.771088
 C         2.432582        -0.503883         1.820208
 O         3.095766        -1.104240         2.958494
 C         1.004642        -1.096596         1.656426
 C         1.010662        -0.439012         0.200308
 C         2.592212        -0.424225         0.063915
 O         3.476853        -0.890595        -1.093599
 H         2.930706         2.488409        -0.244021
 H         1.558835         2.148789        -1.393640
 H         1.117530         2.702565         0.079581
 H         3.273676         1.566258         1.885715
 H         1.548360         1.358244         2.526156
 H         3.360988        -0.395242         3.555754
 H         0.863741        -2.132014         1.931023
 H         0.294022        -0.658323         2.374720
 H         0.299546        -0.432771        -0.561551
 H         4.361170        -1.196066        -0.674998
