19
Iteration:   404
 C         1.816097         2.143871        -0.622697
 C         1.816530         0.944683         0.423170
 C         2.185781         0.995865         1.823832
 C         2.411391        -0.460458         1.798049
 O         3.279916        -1.098713         2.613007
 C         0.975473        -1.218794         1.555910
 C         1.161860        -0.490997         0.220752
 C         2.629967        -0.352021         0.254741
 O         3.418039        -0.965068        -0.722431
 H         1.812943         3.086672         0.036298
 H         2.786822         2.188052        -1.225105
 H         0.961847         2.023667        -1.323716
 H         3.084177         1.649899         2.159659
 H         1.337697         1.258372         2.561781
 H         3.359488        -0.519172         3.411991
 H         1.004012        -2.278820         1.515915
 H         0.350278        -0.943677         2.343076
 H         0.683337        -0.636330        -0.707609
 H         4.255196        -0.544106        -0.718540
