19
Iteration:  3267charge 0 multiplicity 1
 C         1.872607         2.190656        -0.431184
 C         1.966122         0.895665         0.389042
 C         2.315865         0.925443         1.818052
 C         2.407337        -0.574339         1.851166
 O         3.148492        -1.064844         2.978466
 C         0.992788        -1.102100         1.497588
 C         1.139579        -0.447076         0.174273
 C         2.622010        -0.391264         0.128145
 O         3.415419        -0.824222        -1.033664
 H         2.760758         2.913091        -0.368516
 H         2.088864         1.886515        -1.468812
 H         0.998960         2.757125        -0.074907
 H         3.350423         1.357526         1.971624
 H         1.519554         1.415944         2.426493
 H         2.617530        -1.700149         3.461846
 H         0.992648        -2.272415         1.526245
 H         0.186306        -0.744997         2.115205
 H         0.558612        -0.736712        -0.725956
 H         2.886150        -1.588185        -1.352346
