19
Iteration:  3930charge 0 multiplicity 1
 C         1.834895         2.078876        -0.703867
 C         1.764146         0.950972         0.381265
 C         2.327776         0.985123         1.867982
 C         2.339404        -0.575573         1.776808
 O         3.193336        -1.389635         2.673265
 C         0.925528        -1.037079         1.518631
 C         1.046801        -0.438363         0.137035
 C         2.545054        -0.468619         0.222302
 O         3.670915        -0.545548        -0.476260
 H         2.373379         3.057843        -0.381706
 H         2.202654         1.647654        -1.695657
 H         0.707004         2.431696        -0.771561
 H         3.399076         1.294067         1.918721
 H         1.785536         1.463961         2.660954
 H         4.036159        -1.304297         2.203416
 H         0.731246        -2.103158         1.444304
 H         0.118507        -0.584193         2.196279
 H         0.332485        -0.385572        -0.616056
 H         3.854089        -1.478587        -0.747083
