19
Iteration:  4300charge 0 multiplicity 1
 C         1.941904         2.061469        -0.562778
 C         1.763534         0.894149         0.386077
 C         2.229603         0.960710         1.867194
 C         2.322135        -0.602254         1.742060
 O         3.290630        -1.154178         2.521334
 C         0.893492        -1.194571         1.455007
 C         1.009818        -0.444264         0.126358
 C         2.514402        -0.371393         0.230702
 O         3.674785        -0.552416        -0.449931
 H         2.944950         2.013485        -1.087972
 H         1.036113         2.252358        -1.242942
 H         1.855988         2.859717         0.213745
 H         3.308457         1.271179         1.811347
 H         1.812418         1.422559         2.725460
 H         2.845931        -1.801673         3.094639
 H         0.918814        -2.351209         1.168114
 H         0.236918        -1.031716         2.237686
 H         0.355872        -0.434082        -0.814277
 H         3.914329        -1.507874        -0.430279
