19
Iteration:  3190
 C         1.851423         2.047413        -0.741769
 C         1.968247         0.968179         0.413810
 C         2.197875         0.995845         2.000720
 C         2.362082        -0.568651         1.837221
 O         3.416927        -1.309191         2.570527
 C         0.832203        -0.981507         1.571161
 C         1.053228        -0.274169         0.145784
 C         2.506921        -0.375687         0.245612
 O         3.557278        -0.756324        -0.592466
 H         2.720679         2.083578        -1.480327
 H         0.972924         1.625674        -1.220506
 H         1.654267         3.103279        -0.548220
 H         3.153611         1.537349         2.097286
 H         1.419660         1.209009         2.687224
 H         3.170684        -2.227881         2.415118
 H         0.728403        -2.081181         1.271296
 H         0.176156        -0.611774         2.269990
 H         0.337720        -0.532270        -0.578960
 H         3.599225        -1.764066        -0.471641
