19
Iteration:   856charge 0 multiplicity 1
 C         1.721467         2.058283        -0.665817
 C         2.021625         0.986814         0.376962
 C         2.417274         0.974763         1.835499
 C         2.509529        -0.594615         1.820858
 O         3.286342        -1.273904         2.747646
 C         0.956721        -0.908817         1.732571
 C         1.054800        -0.249517         0.269046
 C         2.493410        -0.456855         0.155175
 O         3.302168        -0.930357        -0.877934
 H         0.706868         2.374551        -0.651659
 H         2.272208         2.957853        -0.379211
 H         2.101091         1.745807        -1.585113
 H         3.468663         1.544159         2.018850
 H         1.703250         1.481463         2.491315
 H         4.162333        -1.068761         2.360120
 H         0.634922        -1.924138         1.859237
 H         0.546194        -0.189139         2.499130
 H         0.274961        -0.517559        -0.459587
 H         3.384771        -1.843890        -0.608667
