19
Iteration:   876charge 0 multiplicity 1
 C         1.875450         2.057362        -0.691803
 C         1.928482         0.952246         0.354814
 C         2.434968         1.042097         1.837742
 C         2.463442        -0.465308         1.824703
 O         3.299746        -1.292331         2.613584
 C         0.912771        -0.957743         1.763138
 C         0.927505        -0.340064         0.400322
 C         2.491370        -0.466448         0.166852
 O         3.344109        -0.895209        -0.836757
 H         0.803345         2.251471        -1.041480
 H         2.254778         3.001245        -0.234739
 H         2.517134         1.709927        -1.495210
 H         3.505023         1.462939         1.709855
 H         1.904294         1.581101         2.606753
 H         4.201384        -1.106016         2.397536
 H         0.961681        -2.034255         1.749798
 H         0.260880        -0.692258         2.606276
 H         0.054857        -0.251924        -0.232898
 H         3.591600        -1.771303        -0.613728
