19
Iteration:  3645charge 0 multiplicity 1
 C         1.806856         2.012583        -0.574073
 C         1.977296         0.948822         0.408487
 C         2.211250         1.031732         1.932192
 C         2.410677        -0.499901         1.784499
 O         3.116978        -1.156533         2.835213
 C         1.034318        -1.089414         1.494802
 C         1.202628        -0.361841         0.142000
 C         2.711062        -0.256289         0.164528
 O         3.394765        -0.899202        -0.808741
 H         2.785599         2.454170        -0.672744
 H         1.496167         1.712320        -1.552365
 H         1.083556         2.720716        -0.233319
 H         3.158367         1.568564         2.246658
 H         1.502008         1.372504         2.769548
 H         3.398211        -2.063127         2.611129
 H         0.972477        -2.186626         1.490223
 H         0.257271        -0.878921         2.298123
 H         0.740214        -0.510820        -0.779785
 H         2.943833        -1.695676        -1.073488
