19
Iteration:  3980charge 0 multiplicity 1
 C         1.829266         2.200015        -0.526065
 C         2.018063         0.980866         0.363965
 C         2.065048         0.914009         1.916897
 C         2.325602        -0.550731         1.850200
 O         3.260383        -1.124243         2.771988
 C         0.971473        -1.155204         1.478887
 C         1.132160        -0.411731         0.100419
 C         2.653587        -0.415939         0.221657
 O         3.566653        -0.765491        -0.776368
 H         2.672111         2.800143        -0.432870
 H         1.809285         1.724446        -1.485040
 H         1.043641         2.814053        -0.324812
 H         3.004043         1.426036         2.258376
 H         1.117862         1.264871         2.464711
 H         2.931365        -1.978499         3.150116
 H         0.963131        -2.275778         1.254573
 H         0.147328        -0.888770         2.095176
 H         0.735010        -0.708389        -0.949468
 H         3.185718        -1.646004        -1.074849
