19
Iteration:  2664
 C         1.855665         2.115959        -0.403954
 C         1.885225         0.969086         0.410560
 C         2.179866         0.975780         1.887088
 C         2.419496        -0.527488         1.806507
 O         3.224120        -1.058179         2.798779
 C         1.016101        -1.088456         1.472242
 C         1.029692        -0.305358         0.173188
 C         2.534159        -0.447455         0.088215
 O         3.655782        -0.982474        -0.795033
 H         2.795196         2.242830        -1.053649
 H         1.087361         2.030960        -1.209389
 H         1.637170         3.020205         0.174137
 H         3.079319         1.469044         2.280798
 H         1.380695         1.222366         2.630074
 H         3.025498        -2.026802         2.606531
 H         0.851261        -2.227061         1.333999
 H         0.245846        -0.897723         2.158028
 H         0.348940        -0.515785        -0.714392
 H         3.212674        -0.948726        -1.711484
