19
Iteration:  3943
 C         1.810680         2.014031        -0.575009
 C         1.839807         0.917596         0.407788
 C         2.257172         0.947707         1.842435
 C         2.405294        -0.630482         1.762896
 O         3.146136        -1.251988         2.674582
 C         0.948969        -1.043619         1.497792
 C         1.002701        -0.326656         0.128002
 C         2.517772        -0.383616         0.231207
 O         3.694263        -0.616458        -0.562133
 H         2.561088         2.815628        -0.273725
 H         2.206354         1.720831        -1.559042
 H         0.770177         2.434359        -0.852732
 H         3.237827         1.398419         1.695451
 H         1.754471         1.505674         2.697447
 H         3.908098        -1.772697         2.333201
 H         1.026902        -2.071635         1.368826
 H         0.134883        -0.778792         2.328310
 H         0.469700        -0.703881        -0.700709
 H         3.863669        -1.563360        -0.614699
