19
Iteration:  1391
 C         1.766712         2.227614        -0.453127
 C         2.019463         0.926744         0.365810
 C         2.431296         1.028647         1.816576
 C         2.507352        -0.543225         1.835211
 O         3.350510        -1.223442         2.654214
 C         0.944017        -0.899071         1.694825
 C         1.030333        -0.230196         0.293830
 C         2.495669        -0.559999         0.147754
 O         3.246712        -1.135742        -0.924705
 H         2.767514         2.591796        -0.774102
 H         1.111131         1.994967        -1.345046
 H         1.439558         2.996269         0.323041
 H         3.353551         1.651507         1.792129
 H         1.700134         1.470724         2.536054
 H         4.153991        -0.651212         2.822626
 H         0.776418        -1.922907         1.417737
 H         0.103158        -0.534024         2.342517
 H         0.350415        -0.184710        -0.573851
 H         3.122558        -2.066618        -0.875405
