19
Iteration:    60
 C         1.781241         2.093247        -0.622718
 C         1.850939         0.985597         0.423555
 C         2.383262         1.020762         1.799287
 C         2.425640        -0.526307         1.712125
 O         3.339987        -1.171092         2.657911
 C         0.970270        -1.118667         1.593913
 C         0.982119        -0.389682         0.293782
 C         2.511365        -0.342731         0.168616
 O         3.433825        -0.924264        -0.684476
 H         2.494857         1.910070        -1.455770
 H         0.750019         2.227432        -1.017696
 H         2.206045         3.006434        -0.170061
 H         3.476753         1.224986         1.789737
 H         1.790290         1.563254         2.585436
 H         2.648666        -1.711749         3.095160
 H         1.137538        -2.223474         1.458775
 H         0.278482        -0.604503         2.389678
 H         0.383833        -0.483382        -0.641739
 H         4.364608        -1.030714        -0.279815
