19
Iteration:  2652
 C         1.844313         2.210567        -0.462547
 C         1.872583         0.886120         0.362992
 C         2.165365         1.021027         1.911286
 C         2.391224        -0.538556         1.743714
 O         3.209519        -1.133301         2.670709
 C         0.938770        -1.100684         1.578917
 C         1.009416        -0.371210         0.203397
 C         2.662273        -0.406206         0.184672
 O         3.661284        -0.954580        -0.731663
 H         2.836455         2.242574        -0.943029
 H         1.029655         2.215223        -1.187036
 H         1.807977         3.131466         0.129269
 H         3.100726         1.552835         2.093983
 H         1.279274         1.416373         2.475028
 H         3.372227        -2.076383         2.560373
 H         0.759427        -2.217242         1.436187
 H         0.365154        -0.660995         2.291929
 H         0.396180        -0.577487        -0.728658
 H         3.293402        -1.014516        -1.661965
