19
Iteration:  4281charge 0 multiplicity 1
 C         1.817735         2.120042        -0.587840
 C         1.794056         0.918855         0.412593
 C         2.196542         0.977476         1.831913
 C         2.254527        -0.574138         1.808988
 O         3.377363        -1.304934         2.524849
 C         0.816480        -1.072271         1.490127
 C         1.013926        -0.448787         0.110949
 C         2.570720        -0.405678         0.250959
 O         3.798855        -0.563545        -0.451516
 H         2.761765         1.976851        -1.116233
 H         1.056388         2.021868        -1.255858
 H         1.842840         3.048515        -0.130992
 H         3.167353         1.498161         1.952616
 H         1.358599         1.405549         2.540539
 H         3.139620        -2.263274         2.541149
 H         0.807788        -2.177110         1.678758
 H        -0.100573        -0.656413         2.001012
 H         0.402468        -0.669704        -0.691026
 H         3.960520        -1.444110        -0.745791
