19
Iteration:  2542
 C         1.932287         2.084266        -0.500870
 C         1.837265         0.930163         0.409067
 C         2.268802         0.995151         1.881438
 C         2.415320        -0.514915         1.765233
 O         3.139086        -1.297743         2.628406
 C         0.983104        -1.020442         1.637568
 C         1.058192        -0.401747         0.164157
 C         2.582250        -0.390066         0.183849
 O         3.508023        -0.779208        -0.782452
 H         2.506375         2.921143        -0.077243
 H         2.273394         1.856309        -1.520124
 H         0.861545         2.465333        -0.586176
 H         3.281835         1.307451         1.907626
 H         1.657479         1.404013         2.678359
 H         3.786831        -0.698986         3.048167
 H         0.861005        -2.122682         1.507124
 H         0.258390        -0.676355         2.313939
 H         0.464054        -0.680591        -0.686831
 H         3.537237        -1.715081        -0.855733
