19
Iteration:  3672
 C         1.881609         2.160450        -0.651887
 C         1.990190         0.946260         0.342807
 C         2.195317         0.977967         1.902680
 C         2.356842        -0.550124         1.859139
 O         3.325456        -1.166297         2.773312
 C         0.975456        -1.127686         1.534221
 C         1.017530        -0.270228         0.191983
 C         2.523338        -0.443587         0.147100
 O         3.477921        -0.838983        -0.731277
 H         2.774299         2.890721        -0.455670
 H         1.984584         1.755739        -1.715269
 H         0.903265         2.765828        -0.634075
 H         3.139861         1.479551         2.072707
 H         1.477888         1.331623         2.613131
 H         2.972581        -1.964763         3.210024
 H         1.099669        -2.199997         1.350093
 H         0.176137        -1.192537         2.297174
 H         0.355485        -0.327291        -0.751533
 H         3.755657        -1.742796        -0.815140
