19
Iteration:  3123charge 0 multiplicity 1
 C         1.901948         2.106930        -0.522744
 C         1.912398         0.891729         0.339845
 C         2.279925         0.899078         1.824594
 C         2.376500        -0.610000         1.826052
 O         3.306228        -1.233675         2.655818
 C         0.849261        -1.004023         1.549856
 C         1.044783        -0.395488         0.196484
 C         2.535547        -0.369121         0.217816
 O         3.493118        -0.747882        -0.724394
 H         2.934618         2.509344        -0.729409
 H         1.495542         1.745675        -1.458535
 H         1.345468         2.923484        -0.049080
 H         3.318555         1.280457         1.745649
 H         1.672626         1.374065         2.564572
 H         3.586733        -0.637683         3.401423
 H         0.570543        -2.077585         1.332504
 H         0.129025        -0.546551         2.189056
 H         0.337248        -0.443178        -0.647074
 H         3.788725        -1.635747        -0.683349
