19
Iteration:  3274
 C         1.882519         2.103661        -0.458780
 C         2.003350         0.888901         0.399765
 C         2.308066         0.901011         1.915560
 C         2.378942        -0.528053         1.877537
 O         3.167825        -1.045652         2.920853
 C         1.012321        -1.078923         1.458516
 C         1.159732        -0.419138         0.138763
 C         2.660191        -0.381228         0.105817
 O         3.355504        -0.829914        -1.010839
 H         2.689083         2.752803        -0.102272
 H         2.039280         1.995619        -1.539878
 H         0.862139         2.515752        -0.250123
 H         3.263336         1.414182         2.143597
 H         1.508326         1.303205         2.602353
 H         2.609801        -1.689407         3.414963
 H         1.022788        -2.135331         1.469014
 H         0.085945        -0.757192         2.110532
 H         0.587934        -0.576947        -0.743410
 H         2.877022        -1.621096        -1.162027
