19
Iteration:  1331
 C         1.869775         2.021967        -0.677552
 C         1.914340         0.927891         0.377612
 C         2.516782         1.042162         1.801822
 C         2.476043        -0.502001         1.945864
 O         3.213753        -1.374015         2.691656
 C         1.000083        -0.951395         1.739374
 C         0.981135        -0.284568         0.365223
 C         2.451712        -0.422628         0.179669
 O         3.314371        -0.824819        -0.918940
 H         2.325158         1.819950        -1.661950
 H         0.852958         2.363907        -0.861371
 H         2.192374         2.991431        -0.340544
 H         3.566386         1.356134         1.467672
 H         2.202844         1.688655         2.633647
 H         4.175903        -1.098423         2.726766
 H         0.894255        -2.045005         1.639729
 H         0.248241        -0.694217         2.387770
 H         0.263042        -0.397958        -0.385396
 H         3.075010        -1.764942        -0.997443
