19
Iteration:   328
 C         1.692994         2.043369        -0.605974
 C         1.839932         0.880496         0.394237
 C         2.350214         1.127624         1.744995
 C         2.454808        -0.491596         1.829593
 O         3.280311        -1.203057         2.762035
 C         0.935151        -1.037446         1.576914
 C         1.026303        -0.471605         0.188055
 C         2.564862        -0.445935         0.135852
 O         3.514909        -0.838713        -0.655979
 H         0.827798         2.731407        -0.354883
 H         2.679990         2.526188        -0.440010
 H         1.646806         1.679335        -1.655434
 H         3.405594         1.570434         1.684678
 H         1.687326         1.573619         2.532521
 H         3.860462        -1.859050         2.370195
 H         0.912465        -2.131333         1.607161
 H        -0.066946        -0.656073         2.162319
 H         0.313632        -0.538169        -0.687012
 H         4.407616        -0.470701        -0.321106
