19
Iteration:  2229
 C         1.970158         1.991965        -0.601972
 C         1.920227         0.923065         0.491439
 C         2.324300         1.028316         1.902446
 C         2.513054        -0.515715         1.736048
 O         3.342194        -1.304928         2.462983
 C         0.882209        -0.948864         1.574079
 C         0.848323        -0.233606         0.350412
 C         2.383521        -0.467214         0.174934
 O         3.466673        -0.860395        -0.647578
 H         2.744410         1.634065        -1.415406
 H         1.002328         2.205126        -1.117119
 H         2.399736         2.919851        -0.193039
 H         3.345304         1.355819         1.954006
 H         1.759768         1.347281         2.673389
 H         4.100017        -0.732206         2.728114
 H         0.799307        -2.026446         1.514138
 H         0.204537        -0.560369         2.303754
 H        -0.034322        -0.071753        -0.359338
 H         3.404803        -1.746461        -0.910496
