19
Iteration:  4215
 C         1.745229         2.164760        -0.476154
 C         1.966546         0.960631         0.352105
 C         2.289720         0.933527         1.848644
 C         2.379977        -0.611552         1.835223
 O         3.060190        -1.162033         2.950319
 C         1.021756        -1.229062         1.300387
 C         1.133551        -0.400386         0.084258
 C         2.603792        -0.338652         0.182553
 O         3.564848        -0.716594        -0.707135
 H         2.584962         2.878189        -0.593312
 H         1.401570         1.947428        -1.433513
 H         1.010241         2.779212        -0.058072
 H         3.314790         1.329255         2.128124
 H         1.494710         1.319797         2.612362
 H         3.971743        -1.411237         2.736686
 H         1.323407        -2.306360         1.126798
 H         0.143860        -1.247133         2.032907
 H         0.637173        -0.521116        -0.912550
 H         3.201148        -1.434861        -1.289284
