19
Iteration:   542charge 0 multiplicity 1
 C         1.784795         2.018942        -0.596001
 C         1.793046         0.917538         0.377718
 C         2.316447         0.976384         1.775629
 C         2.391899        -0.567772         1.776551
 O         3.331601        -1.208393         2.573490
 C         0.884396        -0.937477         1.622237
 C         1.042686        -0.499902         0.183055
 C         2.523600        -0.412980         0.226929
 O         3.538608        -0.840201        -0.549076
 H         0.856886         2.393763        -0.887501
 H         2.209267         2.854132        -0.133618
 H         2.403745         1.853267        -1.502139
 H         3.282460         1.423887         1.685481
 H         1.823021         1.486960         2.623439
 H         4.038809        -0.612882         2.877016
 H         0.874132        -2.090759         1.591647
 H         0.144771        -0.652186         2.381107
 H         0.391120        -0.746653        -0.635976
 H         3.978220        -0.062706        -1.025839
