19
Iteration:  4357
 C         1.810606         2.145738        -0.503792
 C         2.005114         0.941522         0.454052
 C         2.048450         0.920424         1.945832
 C         2.353381        -0.538569         1.850180
 O         3.174344        -1.301774         2.748266
 C         0.975380        -1.080990         1.381370
 C         1.265280        -0.479744         0.100368
 C         2.707511        -0.324866         0.237300
 O         3.453060        -0.680433        -0.847506
 H         2.842305         2.389231        -0.975718
 H         1.210909         1.727214        -1.262236
 H         1.423831         3.041742        -0.088728
 H         2.823434         1.592886         2.304369
 H         1.074275         1.047654         2.442005
 H         3.329383        -0.821595         3.584207
 H         0.974083        -2.226524         1.290789
 H         0.198209        -0.798234         2.056302
 H         0.967326        -0.657148        -0.866485
 H         3.902582        -1.560126        -0.730058
