19
Iteration:  2355charge 0 multiplicity 1
 C         1.820947         2.111823        -0.525613
 C         1.928497         1.006589         0.441491
 C         2.350410         1.063732         1.878233
 C         2.407415        -0.498031         1.765976
 O         3.252566        -1.380782         2.541718
 C         0.940439        -0.984977         1.641031
 C         0.994011        -0.311306         0.177145
 C         2.589123        -0.355658         0.204001
 O         3.429406        -0.977559        -0.737116
 H         0.942954         2.216286        -1.119336
 H         2.070948         3.052596        -0.017603
 H         2.711753         1.937844        -1.226132
 H         3.276982         1.597819         1.987838
 H         1.549953         1.456173         2.576797
 H         3.900582        -0.742790         2.955617
 H         1.100998        -2.094899         1.433721
 H         0.154332        -0.885838         2.454567
 H         0.263852        -0.308872        -0.697400
 H         3.515067        -1.868953        -0.460928
