19
Iteration:   129charge 0 multiplicity 1
 C         1.786335         2.100614        -0.655379
 C         1.946434         1.022975         0.363717
 C         2.236497         1.034219         1.996928
 C         2.477843        -0.480418         1.824155
 O         3.311930        -1.206229         2.659774
 C         0.891813        -1.029717         1.601674
 C         1.065700        -0.369645         0.200712
 C         2.539486        -0.427900         0.220441
 O         3.425550        -1.052517        -0.741476
 H         2.191381         1.797307        -1.636061
 H         0.734648         2.314102        -0.876537
 H         2.394426         3.069189        -0.514320
 H         3.252389         1.413977         2.400144
 H         1.401803         1.245185         2.644251
 H         4.196411        -1.418136         2.241363
 H         0.955751        -2.152290         1.708041
 H         0.166610        -0.448920         2.244265
 H         0.521723        -0.621072        -0.644941
 H         3.824715        -0.251634        -1.126107
