19
Iteration:  2135charge 0 multiplicity 1
 C         1.776648         2.174805        -0.593482
 C         2.061917         0.973299         0.379789
 C         2.520411         0.929184         1.888841
 C         2.422922        -0.555364         1.871698
 O         3.248388        -1.340462         2.808693
 C         0.930570        -0.997167         1.631527
 C         1.037174        -0.289361         0.206997
 C         2.459036        -0.364505         0.090195
 O         3.336116        -0.916102        -0.866067
 H         2.546717         2.891796        -0.608527
 H         1.730026         1.701467        -1.576799
 H         0.798385         2.520545        -0.260145
 H         3.586991         1.096275         1.783198
 H         1.944485         1.591857         2.648294
 H         3.949204        -0.660647         3.015786
 H         0.945904        -2.080306         1.597592
 H         0.124701        -0.564104         2.339069
 H         0.485695        -0.122835        -0.733678
 H         2.803341        -1.708380        -1.237085
