19
Iteration:  2842
 C         1.872023         2.056487        -0.479789
 C         1.992420         0.923588         0.445432
 C         2.236952         0.943563         1.937887
 C         2.377160        -0.571485         1.861506
 O         3.234462        -1.103538         2.721197
 C         0.927137        -0.983951         1.424964
 C         1.101597        -0.350269         0.147359
 C         2.651432        -0.396696         0.235109
 O         3.369545        -0.935246        -0.803233
 H         2.582150         2.963161        -0.398003
 H         1.866882         1.640198        -1.499523
 H         0.910454         2.538148        -0.212395
 H         3.233383         1.478794         2.019374
 H         1.473432         1.291721         2.689964
 H         3.488623        -1.938339         2.267017
 H         0.717960        -2.071895         1.123206
 H         0.232309        -0.586618         2.168835
 H         0.458946        -0.504729        -0.735165
 H         4.237008        -0.626754        -1.218864
