19
Iteration:  1644
 C         1.821600         2.043058        -0.682038
 C         2.057100         0.971544         0.402179
 C         2.582914         0.993556         1.968089
 C         2.447575        -0.549358         1.856159
 O         3.372623        -1.453957         2.432455
 C         0.852011        -0.801121         1.826107
 C         0.925269        -0.189356         0.323095
 C         2.428763        -0.426289         0.208106
 O         3.230213        -0.937160        -0.857652
 H         0.759131         2.388278        -0.574080
 H         2.640401         2.801502        -0.714482
 H         1.868428         1.597892        -1.725196
 H         3.641720         1.411992         2.062609
 H         2.113576         1.376882         2.870051
 H         4.157457        -0.929175         2.416368
 H         0.597281        -1.885400         1.854214
 H         0.396248        -0.160313         2.750257
 H         0.137822         0.082995        -0.514010
 H         3.425899        -1.922525        -0.697288
