19
Iteration:  3388charge 0 multiplicity 1
 C         1.800474         2.055710        -0.692607
 C         1.886566         1.007753         0.364261
 C         2.264505         1.013716         1.901320
 C         2.441117        -0.544857         1.730570
 O         3.240820        -1.395639         2.530843
 C         0.917934        -0.928714         1.610074
 C         0.951289        -0.316726         0.202755
 C         2.543176        -0.321262         0.177595
 O         3.605354        -0.956803        -0.416802
 H         2.795467         2.419758        -0.962594
 H         1.455723         1.740230        -1.693944
 H         1.144145         2.836623        -0.288129
 H         3.174777         1.648064         2.029955
 H         1.487860         1.364259         2.661011
 H         4.214819        -1.287113         2.378177
 H         0.950147        -2.090495         1.583025
 H         0.336381        -0.696976         2.485297
 H         0.155866        -0.293711        -0.532531
 H         3.856212        -0.581861        -1.249585
