19
Iteration:  1956
 C         1.844407         2.259255        -0.548669
 C         1.925088         0.958847         0.345580
 C         2.566334         0.906566         1.720385
 C         2.445280        -0.646331         1.806964
 O         3.213650        -1.326744         2.714928
 C         0.953228        -0.938770         1.689928
 C         0.929087        -0.220843         0.367483
 C         2.535388        -0.443612         0.137685
 O         3.334253        -0.948817        -0.859605
 H         0.970647         2.167475        -1.211708
 H         1.537707         3.041337         0.149602
 H         2.774877         2.431056        -1.067720
 H         3.558371         1.311562         1.682239
 H         2.011831         1.644314         2.430398
 H         4.109095        -0.878845         2.737235
 H         0.937559        -2.092650         1.621274
 H         0.276696        -0.650651         2.546049
 H         0.188167        -0.096351        -0.363805
 H         3.249037        -1.960327        -0.691915
