19
Iteration:  3736
 C         1.844909         2.059405        -0.694692
 C         1.944356         0.977700         0.332268
 C         2.226162         1.031165         1.813537
 C         2.363511        -0.538161         1.772324
 O         3.240172        -1.483626         2.539488
 C         0.888374        -1.023941         1.616857
 C         1.048764        -0.399825         0.227175
 C         2.530368        -0.381984         0.247911
 O         3.607082        -0.648138        -0.516293
 H         2.602224         2.833818        -0.508509
 H         2.288645         1.643509        -1.583424
 H         0.832899         2.359311        -0.952162
 H         3.075596         1.654261         2.071880
 H         1.577194         1.366652         2.658819
 H         3.893154        -0.906693         2.949659
 H         0.762847        -2.087942         1.641493
 H         0.213254        -0.470981         2.369765
 H         0.215435        -0.383576        -0.550719
 H         3.599875        -1.577605        -0.499264
