19
Iteration:  2864
 C         1.788051         2.243953        -0.485926
 C         1.954324         0.987369         0.387515
 C         2.329939         0.951930         1.856450
 C         2.431820        -0.593654         1.794662
 O         3.131357        -1.110213         2.921188
 C         0.960041        -1.129458         1.502084
 C         1.093195        -0.383829         0.165373
 C         2.541922        -0.426069         0.131084
 O         3.431130        -0.980499        -0.911729
 H         2.872564         2.620266        -0.469544
 H         1.588483         2.013890        -1.538412
 H         1.265200         3.126996        -0.098657
 H         3.393032         1.336660         1.960759
 H         1.665783         1.242837         2.723317
 H         3.644472        -1.913144         2.757747
 H         1.123071        -2.241112         1.320865
 H         0.203908        -0.821592         2.234065
 H         0.559106        -0.129411        -0.784581
 H         4.252760        -0.573098        -0.717308
