19
Iteration:  3318charge 0 multiplicity 1
 C         1.893582         2.124819        -0.735351
 C         1.891632         0.984883         0.335625
 C         2.275701         0.968550         1.935419
 C         2.387974        -0.587893         1.785552
 O         3.236727        -1.278742         2.684977
 C         0.974106        -1.048705         1.628199
 C         1.005081        -0.301243         0.214591
 C         2.558687        -0.350912         0.201966
 O         3.510437        -0.803371        -0.655049
 H         2.469093         2.967707        -0.327587
 H         2.516655         1.914739        -1.595703
 H         0.823589         2.340854        -0.915871
 H         3.313776         1.348666         2.121959
 H         1.602631         1.296836         2.758897
 H         3.607048        -2.108243         2.300732
 H         0.811391        -2.047821         1.382623
 H         0.199673        -0.864082         2.477240
 H         0.267142        -0.258199        -0.580410
 H         3.366838        -1.724051        -0.734404
