19
Iteration:  1844
 C         1.942487         2.105405        -0.644755
 C         1.844320         0.960403         0.424575
 C         2.482249         1.058871         1.877629
 C         2.496813        -0.517003         1.836577
 O         3.295582        -1.458376         2.523770
 C         0.927631        -0.824528         1.712457
 C         0.908460        -0.315056         0.375455
 C         2.446626        -0.446063         0.244953
 O         3.345756        -0.863674        -0.819093
 H         2.713753         1.838564        -1.410732
 H         1.002354         2.159029        -1.258587
 H         2.081014         3.106304        -0.267722
 H         3.539537         1.319371         1.589941
 H         2.155155         1.614813         2.818318
 H         4.088161        -1.636135         1.963478
 H         0.723749        -1.997475         1.739401
 H         0.287504        -0.387672         2.528969
 H         0.093869        -0.296545        -0.402612
 H         3.235854        -1.816081        -0.742150
