19
Iteration:  4086charge 0 multiplicity 1
 C         1.774599         2.031659        -0.668177
 C         1.858552         0.907666         0.435645
 C         2.210291         0.986894         1.928670
 C         2.341051        -0.562978         1.796390
 O         3.177580        -1.356612         2.557126
 C         0.896297        -1.004546         1.574328
 C         1.117179        -0.482314         0.080191
 C         2.604254        -0.378554         0.265238
 O         3.758995        -0.535206        -0.511960
 H         2.667429         2.787428        -0.541444
 H         1.859950         1.562318        -1.689887
 H         0.671736         2.488149        -0.559286
 H         3.171889         1.348145         2.126330
 H         1.474072         1.521320         2.491751
 H         3.402986        -2.041959         1.885433
 H         0.690656        -2.005249         1.791578
 H         0.097285        -0.377654         2.131334
 H         0.297034        -0.504614        -0.730634
 H         3.837185        -1.456493        -0.811085
