19
Iteration:   976charge 0 multiplicity 1
 C         1.764124         2.214717        -0.686337
 C         1.962539         1.011026         0.381148
 C         2.527875         1.017211         1.837128
 C         2.534652        -0.539654         1.834684
 O         3.192458        -1.277245         2.757585
 C         1.067256        -0.956195         1.768305
 C         1.005193        -0.284564         0.346615
 C         2.492193        -0.460391         0.172561
 O         3.196116        -1.013082        -0.932617
 H         1.933371         1.651333        -1.666319
 H         0.674781         2.518872        -0.734268
 H         2.491867         2.983465        -0.407392
 H         3.558532         1.394998         1.634339
 H         2.226226         1.510975         2.688965
 H         4.176851        -1.137994         2.631323
 H         1.135358        -1.982447         1.542646
 H         0.201492        -0.749438         2.420746
 H         0.484374        -0.569432        -0.631044
 H         3.413002        -1.982802        -0.771180
