19
Iteration:  4121charge 0 multiplicity 1
 C         1.858136         1.976483        -0.728110
 C         1.793059         1.012638         0.498788
 C         2.229035         1.005823         1.965962
 C         2.348323        -0.566095         1.828239
 O         3.295236        -1.333152         2.586335
 C         0.988243        -1.138346         1.424068
 C         0.941887        -0.327881         0.129705
 C         2.529590        -0.374551         0.226245
 O         3.735768        -0.602271        -0.503222
 H         2.160788         3.033971        -0.516737
 H         2.403008         1.628112        -1.676649
 H         0.782235         2.358678        -1.122118
 H         3.243389         1.362856         2.093299
 H         1.561788         1.460936         2.714547
 H         2.810904        -2.146587         2.892449
 H         1.076558        -2.227273         1.199303
 H         0.130204        -0.907217         2.116837
 H         0.187340        -0.135018        -0.566905
 H         3.672961        -1.490244        -0.839280
