19
Iteration:  3705charge 0 multiplicity 1
 C         1.918133         2.038359        -0.504244
 C         1.774666         0.868894         0.351701
 C         2.263261         1.009039         1.820979
 C         2.321035        -0.502423         1.774873
 O         3.293533        -1.234054         2.473004
 C         0.855551        -0.984270         1.626307
 C         1.076719        -0.422948         0.167260
 C         2.524282        -0.497669         0.246527
 O         3.608384        -0.701467        -0.629511
 H         2.629221         2.765718         0.014709
 H         2.466718         1.623681        -1.422908
 H         1.028431         2.661002        -0.848477
 H         3.266227         1.339017         1.672454
 H         1.760282         1.353993         2.691963
 H         3.044309        -1.163619         3.437869
 H         0.851848        -2.066433         1.718877
 H         0.241518        -0.409484         2.320786
 H         0.405225        -0.538672        -0.724688
 H         3.843759        -1.683005        -0.412724
