19
Iteration:    98charge 0 multiplicity 1
 C         1.840381         2.066972        -0.508838
 C         1.885753         0.905099         0.325178
 C         2.261032         1.023196         1.772766
 C         2.435292        -0.489291         1.772603
 O         3.382029        -1.145030         2.669529
 C         0.893940        -1.025456         1.592207
 C         1.007504        -0.346559         0.244314
 C         2.541113        -0.432888         0.220888
 O         3.448804        -0.993298        -0.678074
 H         2.438027         1.914725        -1.424149
 H         0.842218         2.322189        -0.898334
 H         2.128815         2.975673         0.083182
 H         3.319440         1.380645         1.972173
 H         1.593368         1.581962         2.422955
 H         3.654187        -1.964252         2.261566
 H         0.724827        -2.069579         1.766778
 H         0.168048        -0.625759         2.246000
 H         0.256874        -0.483012        -0.558676
 H         3.974672        -0.220166        -1.006265
