19
Iteration:  3802charge 0 multiplicity 1
 C         1.829025         2.234650        -0.515789
 C         1.912364         0.909906         0.296859
 C         2.164237         0.936694         1.805264
 C         2.399640        -0.548049         1.809615
 O         3.172767        -1.127921         2.822589
 C         0.938885        -1.108237         1.542607
 C         1.115925        -0.409720         0.123152
 C         2.670348        -0.388719         0.244863
 O         3.583191        -0.831242        -0.736201
 H         2.830560         2.610838        -0.679509
 H         1.333714         2.159288        -1.442805
 H         1.223017         2.900140         0.062268
 H         3.086504         1.350043         2.213675
 H         1.437628         1.115868         2.683884
 H         3.554144        -1.967293         2.451518
 H         0.962332        -2.152311         1.320162
 H         0.047776        -0.739123         2.135069
 H         0.579414        -0.825657        -0.692400
 H         3.262887        -1.594981        -1.352417
