19
Iteration:  4729
 C         1.709845         2.178006        -0.444830
 C         1.874545         0.896869         0.344772
 C         2.225040         0.962048         1.797167
 C         2.436876        -0.505539         1.796363
 O         3.134326        -1.291326         2.755758
 C         0.940791        -0.935241         1.561564
 C         1.220459        -0.485983         0.140491
 C         2.730780        -0.349625         0.192047
 O         3.607353        -0.798978        -0.744222
 H         1.009844         2.822739         0.154636
 H         2.666123         2.604364        -0.725234
 H         1.222460         1.922899        -1.375796
 H         3.197265         1.480767         1.932896
 H         1.370498         1.232777         2.528995
 H         3.050683        -2.240041         2.510255
 H         0.803739        -2.059913         1.800117
 H         0.156859        -0.355593         2.119281
 H         0.552145        -0.580872        -0.646670
 H         3.229132        -1.485528        -1.376129
