19
Iteration:  3499
 C         1.895580         2.066345        -0.641130
 C         1.864908         0.950881         0.349530
 C         2.369441         1.007618         1.831639
 C         2.413349        -0.558355         1.829412
 O         3.195672        -1.193519         2.856663
 C         0.928640        -1.148065         1.548404
 C         1.060283        -0.384313         0.167221
 C         2.606674        -0.376754         0.244880
 O         3.328969        -0.810889        -0.843700
 H         2.576393         2.808952        -0.379667
 H         2.153505         1.813566        -1.666791
 H         0.936648         2.535930        -0.537953
 H         3.420427         1.361497         1.861706
 H         1.805744         1.383064         2.763818
 H         3.880050        -0.574946         3.135406
 H         0.963174        -2.288512         1.455981
 H         0.262706        -0.745275         2.238767
 H         0.554172        -0.609889        -0.817858
 H         4.144631        -1.285187        -0.467101
