19
Iteration:  2834
 C         1.848832         2.091754        -0.537626
 C         2.038615         0.920164         0.409587
 C         2.191311         0.973686         1.960515
 C         2.381605        -0.534471         1.823646
 O         3.304830        -1.179745         2.678552
 C         0.900725        -0.989312         1.474214
 C         1.134470        -0.326504         0.132169
 C         2.603011        -0.435127         0.306603
 O         3.360323        -0.940675        -0.780575
 H         2.630382         2.859323        -0.318843
 H         1.976764         1.800141        -1.638912
 H         0.762665         2.490469        -0.536878
 H         3.112511         1.484721         2.216356
 H         1.403861         1.244861         2.670259
 H         3.459069        -2.101989         2.415511
 H         0.841808        -2.043197         1.352871
 H         0.071628        -0.555396         2.137595
 H         0.578884        -0.351910        -0.848704
 H         4.109758        -0.288337        -0.887505
