19
Iteration:  3642
 C         1.794568         2.025493        -0.567213
 C         1.975164         0.951076         0.416082
 C         2.212194         1.016516         1.956865
 C         2.427330        -0.502756         1.803694
 O         3.105207        -1.154474         2.843611
 C         1.024673        -1.072152         1.505495
 C         1.203747        -0.375905         0.120612
 C         2.711364        -0.268467         0.143849
 O         3.396958        -0.900921        -0.799525
 H         2.761993         2.408371        -0.738093
 H         1.483082         1.695462        -1.571778
 H         1.093807         2.763480        -0.212788
 H         3.142833         1.564015         2.123668
 H         1.541652         1.367825         2.723083
 H         3.480533        -2.033681         2.587253
 H         1.073383        -2.223681         1.521002
 H         0.293604        -0.754566         2.214132
 H         0.772972        -0.470080        -0.904079
 H         2.906014        -1.687808        -1.239138
