19
Iteration:   255
 C         1.785740         2.105667        -0.747339
 C         1.826656         0.995397         0.311541
 C         2.254622         1.004984         1.870503
 C         2.448843        -0.499843         1.829031
 O         3.331135        -1.237425         2.649555
 C         1.029564        -1.129720         1.571620
 C         1.089746        -0.348131         0.244588
 C         2.550724        -0.378550         0.277037
 O         3.432714        -0.944270        -0.587690
 H         0.876643         2.245522        -1.323293
 H         2.035618         2.938538        -0.079103
 H         2.610027         2.014483        -1.417059
 H         3.189665         1.409958         2.022465
 H         1.567506         1.427674         2.627441
 H         3.675211        -0.596094         3.289690
 H         1.162730        -2.099483         1.227746
 H         0.235335        -1.158517         2.240132
 H         0.469399        -0.416546        -0.660468
 H         2.901200        -0.845397        -1.439550
