19
Iteration:   490charge 0 multiplicity 1
 C         1.641489         1.960196        -0.732190
 C         1.928162         0.933098         0.390010
 C         2.208766         1.101926         1.887771
 C         2.446735        -0.522037         1.886735
 O         3.184065        -1.330695         2.723424
 C         1.012475        -1.037144         1.508292
 C         1.093402        -0.369276         0.205603
 C         2.656308        -0.358007         0.275969
 O         3.531382        -0.843345        -0.676152
 H         1.017413         2.814746        -0.306328
 H         2.538344         2.496993        -1.096345
 H         1.111857         1.616067        -1.663917
 H         3.224879         1.662296         1.895985
 H         1.553278         1.569219         2.577836
 H         4.099141        -1.551334         2.429472
 H         1.097875        -2.185328         1.693677
 H         0.343898        -0.629975         2.313639
 H         0.606737        -0.423616        -0.679930
 H         3.881038        -0.081319        -1.221474
