19
Iteration:  2879charge 0 multiplicity 1
 C         1.881016         2.358197        -0.532612
 C         1.934473         0.939823         0.309426
 C         2.367400         0.933483         1.821120
 C         2.442082        -0.585428         1.823253
 O         3.102874        -1.155918         2.954373
 C         1.084439        -1.137132         1.514853
 C         1.035611        -0.384350         0.157087
 C         2.592872        -0.470771         0.103320
 O         3.380269        -0.908218        -0.843798
 H         2.796618         2.875171        -0.839412
 H         1.114788         2.273552        -1.396764
 H         1.138448         2.929564         0.163213
 H         3.296922         1.418142         2.014537
 H         1.609226         1.422516         2.435340
 H         3.145027        -2.099154         2.753535
 H         1.096529        -2.146569         1.256428
 H         0.240302        -0.985212         2.295318
 H         0.238060        -0.824432        -0.448397
 H         4.308718        -0.665796        -0.606029
