19
Iteration:   809
 C         1.743121         2.198590        -0.570951
 C         1.938759         0.990416         0.331376
 C         2.480531         1.025827         1.733444
 C         2.520961        -0.488985         1.824117
 O         3.193814        -1.247934         2.713824
 C         1.020684        -1.035812         1.713903
 C         1.039908        -0.398903         0.302458
 C         2.486670        -0.437177         0.117904
 O         3.370922        -1.040763        -0.758255
 H         1.351316         3.063878         0.035811
 H         2.614708         2.601553        -1.101991
 H         1.033858         1.927108        -1.346542
 H         3.610665         1.218036         1.823795
 H         2.038393         1.631990         2.549818
 H         3.849959        -0.581239         3.098437
 H         1.099379        -2.119348         1.544501
 H         0.267321        -0.709657         2.391904
 H         0.256199        -0.263510        -0.387639
 H         2.845783        -1.391308        -1.568039
