19
Iteration:  3981charge 0 multiplicity 1
 C         1.832108         2.201717        -0.521692
 C         2.013999         0.974890         0.363562
 C         2.063778         0.912512         1.910770
 C         2.329462        -0.550676         1.849307
 O         3.263399        -1.122127         2.775432
 C         0.967758        -1.155996         1.477345
 C         1.130099        -0.410472         0.095734
 C         2.663903        -0.405520         0.224897
 O         3.557638        -0.768382        -0.775621
 H         2.690950         2.799354        -0.434431
 H         1.778285         1.710623        -1.485265
 H         1.035609         2.818922        -0.311427
 H         3.008557         1.419631         2.291239
 H         1.131251         1.226758         2.443736
 H         2.882297        -1.943108         3.161477
 H         0.967784        -2.292392         1.249341
 H         0.176521        -0.887496         2.087960
 H         0.795089        -0.709936        -0.938113
 H         3.167961        -1.659499        -1.103176
