19
Iteration:  3060
 C         1.715452         2.207152        -0.665316
 C         1.880779         0.954735         0.403238
 C         2.402677         1.066123         1.869249
 C         2.469600        -0.535421         1.914524
 O         3.045271        -1.328293         2.884368
 C         1.053019        -1.056338         1.446473
 C         1.205521        -0.426920         0.206908
 C         2.677551        -0.443845         0.227312
 O         3.370126        -0.825631        -0.823741
 H         2.343229         3.085287        -0.260015
 H         2.305972         2.064010        -1.576316
 H         0.759987         2.670170        -0.905806
 H         3.443394         1.445918         1.981500
 H         1.885915         1.526166         2.700654
 H         4.031394        -1.400010         2.770658
 H         0.913798        -2.224005         1.230859
 H         0.183039        -0.946359         2.047828
 H         0.669783        -0.644964        -0.712447
 H         2.728615        -1.283781        -1.310322
