19
Iteration:  4348
 C         1.840079         2.146389        -0.556770
 C         1.925494         0.948930         0.398082
 C         1.994545         0.921649         1.930297
 C         2.385881        -0.610756         1.875633
 O         3.181067        -1.292573         2.694083
 C         1.013724        -1.151390         1.461375
 C         1.259401        -0.384117         0.107284
 C         2.770046        -0.327300         0.316893
 O         3.458682        -0.679939        -0.858809
 H         2.869793         2.182497        -0.890554
 H         1.190894         1.956197        -1.347594
 H         1.550191         3.034543        -0.070359
 H         2.823452         1.436605         2.412959
 H         1.012323         1.279070         2.472329
 H         3.105294        -0.854410         3.561116
 H         0.921666        -2.234161         1.444938
 H         0.047955        -0.760383         1.991556
 H         0.738219        -0.470535        -0.849304
 H         4.011170        -1.510266        -0.735322
