19
Iteration:   522charge 0 multiplicity 1
 C         1.718201         2.039053        -0.726808
 C         1.873154         0.919194         0.339212
 C         2.360193         1.004762         1.922412
 C         2.418763        -0.521250         1.786484
 O         3.218893        -1.239807         2.613840
 C         0.953376        -1.060023         1.604960
 C         0.937097        -0.420695         0.226933
 C         2.512274        -0.458570         0.173934
 O         3.645682        -0.810809        -0.573174
 H         0.685411         2.403599        -0.643664
 H         2.379485         2.829697        -0.506736
 H         1.936240         1.590306        -1.712493
 H         3.368883         1.512377         1.985690
 H         1.839013         1.439267         2.699768
 H         4.105744        -0.890795         2.689499
 H         0.906462        -2.247607         1.860937
 H         0.230649        -0.532385         2.393083
 H         0.274472        -0.326147        -0.532134
 H         3.934328         0.008404        -1.053681
