19
Iteration:  3199
 C         1.812231         2.046528        -0.731913
 C         1.963286         0.973996         0.428368
 C         2.279677         0.905307         1.953710
 C         2.327515        -0.556582         1.867812
 O         3.360045        -1.257115         2.639041
 C         0.847132        -0.925197         1.496066
 C         1.034561        -0.319291         0.193783
 C         2.593863        -0.388535         0.285573
 O         3.526464        -0.743290        -0.684749
 H         2.655412         2.027496        -1.469099
 H         0.995126         1.729331        -1.382423
 H         1.614369         2.997046        -0.243191
 H         3.292406         1.269638         2.302960
 H         1.521809         1.358451         2.666455
 H         3.328753        -2.191124         2.397838
 H         0.804343        -2.016771         1.441371
 H        -0.061970        -0.687993         2.080039
 H         0.411783        -0.551050        -0.658666
 H         3.735114        -1.730784        -0.565276
