19
Iteration:  1509charge 0 multiplicity 1
 C         1.930986         2.045609        -0.628750
 C         1.874645         0.944160         0.422946
 C         2.585479         1.030151         1.773102
 C         2.524646        -0.589746         1.796026
 O         3.252061        -1.411277         2.556908
 C         1.067638        -0.869765         1.803461
 C         0.895527        -0.198524         0.432232
 C         2.393500        -0.495075         0.185315
 O         3.176388        -0.834780        -0.862990
 H         1.118035         2.760432        -0.698412
 H         2.868420         2.583871        -0.534846
 H         1.905909         1.504086        -1.597760
 H         3.636991         1.520724         1.625620
 H         1.988421         1.609392         2.450494
 H         4.128099        -1.034170         2.735461
 H         1.029027        -1.961624         1.636934
 H         0.337458        -0.530917         2.647534
 H         0.055859        -0.194404        -0.233875
 H         3.564773        -1.709868        -0.794952
