19
Iteration:   776
 C         1.855879         2.075054        -0.566331
 C         1.881722         0.981943         0.383409
 C         2.306618         0.994584         1.782930
 C         2.471613        -0.515261         1.781891
 O         3.356438        -1.195745         2.664650
 C         0.963111        -0.969689         1.676800
 C         1.008543        -0.330674         0.271365
 C         2.481295        -0.409475         0.140442
 O         3.406514        -1.061342        -0.699975
 H         2.011620         3.012483         0.004728
 H         2.572513         1.962609        -1.359309
 H         0.815592         2.213085        -0.849737
 H         3.423618         1.371288         1.809889
 H         1.644949         1.516444         2.532211
 H         4.312744        -0.978352         2.562450
 H         0.718154        -2.052547         1.663819
 H         0.219754        -0.646976         2.377912
 H         0.203771        -0.287254        -0.508313
 H         3.018789        -0.907640        -1.555687
