19
Iteration:    65charge 0 multiplicity 1
 C         1.789277         2.152611        -0.657461
 C         1.842789         0.986087         0.372353
 C         2.388743         0.966812         1.811430
 C         2.383478        -0.507293         1.738219
 O         3.340044        -1.156649         2.650678
 C         0.987792        -1.124023         1.614527
 C         0.991730        -0.414321         0.278496
 C         2.516307        -0.361314         0.166580
 O         3.428816        -0.922663        -0.658639
 H         2.517658         1.925326        -1.435927
 H         0.767571         2.293866        -0.990469
 H         2.200342         3.041689        -0.083022
 H         3.518307         1.083985         1.796135
 H         1.926686         1.583219         2.573153
 H         2.736803        -1.812899         3.073077
 H         1.158041        -2.194001         1.543803
 H         0.325443        -0.708939         2.299437
 H         0.221222        -0.453764        -0.482865
 H         4.293856        -0.852861        -0.305619
