19
Iteration:  3785charge 0 multiplicity 1
 C         1.794763         2.076353        -0.564409
 C         1.985523         0.962075         0.416271
 C         2.247963         1.004715         1.903588
 C         2.336344        -0.608029         1.844489
 O         3.161234        -1.183246         2.768027
 C         0.937858        -1.117490         1.422146
 C         1.140341        -0.365935         0.140857
 C         2.589890        -0.382933         0.196663
 O         3.571155        -0.772666        -0.664889
 H         2.731718         2.633190        -0.825099
 H         1.418942         1.699357        -1.602675
 H         0.955751         2.730727        -0.162144
 H         3.243774         1.520091         2.022512
 H         1.542178         1.689452         2.317526
 H         3.881238        -1.714691         2.354566
 H         0.980405        -2.276314         1.414969
 H         0.230125        -0.894237         2.188508
 H         0.641480        -0.326003        -0.850839
 H         3.039589        -1.567984        -1.055712
