19
Iteration:  3969charge 0 multiplicity 1
 C         1.851467         2.147687        -0.567096
 C         1.962784         0.949624         0.409303
 C         2.111591         0.989689         1.929488
 C         2.334628        -0.612575         1.852420
 O         3.217036        -1.135187         2.747715
 C         0.951850        -1.129396         1.468516
 C         1.137856        -0.435011         0.126017
 C         2.581374        -0.407190         0.178429
 O         3.632557        -0.745513        -0.740742
 H         2.609516         2.846157        -0.399082
 H         1.931234         1.997544        -1.624370
 H         0.927765         2.581295        -0.445550
 H         3.040582         1.551989         2.195754
 H         1.287650         1.429157         2.597691
 H         3.259069        -2.123004         2.690758
 H         1.019492        -2.268310         1.339361
 H         0.116853        -0.911778         2.087358
 H         0.223597        -0.367667        -0.552728
 H         3.594096        -1.650058        -1.007653
