19
Iteration:   897charge 0 multiplicity 1
 C         1.985713         1.958528        -0.640777
 C         1.800984         0.949859         0.374632
 C         2.484371         1.088365         1.748127
 C         2.463922        -0.513791         1.756727
 O         3.335619        -1.305692         2.521933
 C         1.039434        -0.936160         1.756260
 C         0.864653        -0.339247         0.342111
 C         2.380287        -0.473921         0.222032
 O         3.299891        -0.804047        -0.640599
 H         0.965544         2.093928        -1.207437
 H         2.123474         2.932881        -0.080004
 H         2.825081         1.731972        -1.354987
 H         3.527486         1.417256         1.665777
 H         1.942826         1.603006         2.515342
 H         4.214090        -0.829477         2.634460
 H         0.932025        -1.996307         1.621479
 H         0.379806        -0.676711         2.572366
 H         0.280035        -0.501035        -0.548795
 H         3.171312        -1.804859        -0.873167
