19
Iteration:  2055
 C         1.994756         2.070782        -0.598313
 C         1.900262         0.948011         0.415167
 C         2.502989         0.982734         1.885345
 C         2.361784        -0.547828         1.801193
 O         3.304869        -1.267823         2.502589
 C         0.907874        -1.005345         1.676461
 C         0.880382        -0.186325         0.320374
 C         2.468077        -0.478897         0.252150
 O         3.346584        -0.861709        -0.793365
 H         1.222482         2.753238        -0.313744
 H         2.999156         2.356671        -0.781735
 H         1.671998         1.698936        -1.507559
 H         3.563637         1.185316         1.919370
 H         2.018289         1.461015         2.821487
 H         4.131277        -0.719408         2.365733
 H         0.692105        -2.047026         1.359127
 H         0.285455        -0.808268         2.594670
 H         0.158345        -0.318788        -0.497408
 H         3.404486        -1.866691        -0.585910
