19
Iteration:   187
 C         1.783507         2.113068        -0.658330
 C         1.872922         0.954377         0.358247
 C         2.354306         1.022183         1.832940
 C         2.379405        -0.599616         1.799157
 O         3.291327        -1.250443         2.696882
 C         0.936995        -0.986120         1.702688
 C         1.087421        -0.497010         0.190572
 C         2.530520        -0.402701         0.145580
 O         3.461348        -0.840976        -0.792570
 H         1.080575         1.836250        -1.454297
 H         1.429771         2.923332        -0.004473
 H         2.757026         2.347574        -0.965099
 H         3.335534         1.418076         2.047128
 H         1.695036         1.471075         2.595910
 H         3.611743        -0.581385         3.294328
 H         0.828578        -2.026978         1.816356
 H         0.240604        -0.535717         2.331132
 H         0.254496        -0.488561        -0.694845
 H         4.153746        -1.141257        -0.142566
