19
Iteration:   850charge 0 multiplicity 1
 C         1.697147         2.085086        -0.624543
 C         2.021770         0.956584         0.346106
 C         2.426337         0.965732         1.861725
 C         2.497537        -0.551866         1.808454
 O         3.284107        -1.263546         2.743861
 C         0.993206        -0.853068         1.668939
 C         1.060261        -0.263392         0.287881
 C         2.555215        -0.507299         0.163208
 O         3.271612        -0.932866        -0.850003
 H         0.598088         2.378291        -0.633966
 H         2.379096         2.937345        -0.417897
 H         1.943317         1.624338        -1.689740
 H         3.320816         1.450969         1.842232
 H         1.708390         1.392592         2.612313
 H         4.223240        -1.129983         2.633878
 H         0.621206        -1.910193         1.880041
 H         0.421623        -0.349185         2.480263
 H         0.309691        -0.315618        -0.561285
 H         3.336921        -1.901611        -0.835490
