19
Iteration:  4632
 C         1.981210         2.107714        -0.472634
 C         1.863995         0.878160         0.354809
 C         2.124775         1.023677         1.861449
 C         2.386556        -0.536213         1.753367
 O         3.252477        -1.288137         2.523305
 C         0.920438        -0.967205         1.673444
 C         1.073137        -0.474988         0.133748
 C         2.518247        -0.464994         0.310403
 O         3.551791        -0.721458        -0.672287
 H         0.905367         2.327887        -0.850383
 H         2.244656         2.977452         0.141931
 H         2.774354         2.099052        -1.248911
 H         2.929307         1.686635         2.095220
 H         1.326555         1.276023         2.577312
 H         4.110983        -1.450667         2.070603
 H         0.718695        -1.983200         1.852170
 H         0.267999        -0.278654         2.198567
 H         0.771823        -0.762801        -0.805274
 H         3.432600        -1.514973        -1.266019
