19
Iteration:  4331charge 0 multiplicity 1
 C         1.960505         2.129273        -0.600703
 C         1.846928         0.956874         0.423609
 C         2.039266         0.976659         1.939377
 C         2.343477        -0.600306         1.802553
 O         3.269653        -1.275389         2.709000
 C         0.966952        -1.209656         1.457762
 C         1.071970        -0.388143         0.186337
 C         2.606331        -0.317698         0.196306
 O         3.600675        -0.659902        -0.789221
 H         2.974289         2.192655        -1.085923
 H         1.057758         2.066919        -1.354358
 H         1.838704         3.052199         0.068341
 H         2.917758         1.601148         2.186199
 H         1.226185         1.176914         2.590540
 H         2.898617        -1.189391         3.611524
 H         1.024447        -2.259793         1.133729
 H         0.251505        -1.191040         2.278285
 H         0.539343        -0.587044        -0.805984
 H         4.097506        -1.437113        -0.454018
