19
Iteration:   759
 C         1.851449         2.106870        -0.626250
 C         1.955440         0.923394         0.360941
 C         2.327795         1.080230         1.938838
 C         2.428094        -0.511723         1.823053
 O         3.321235        -1.186018         2.530456
 C         0.939364        -0.990354         1.681323
 C         0.976910        -0.413882         0.296082
 C         2.537209        -0.455636         0.211309
 O         3.395721        -1.014916        -0.684953
 H         2.480192         2.936334        -0.317238
 H         2.384506         1.768166        -1.574229
 H         0.856790         2.418610        -1.036324
 H         3.228771         1.597498         2.214322
 H         1.573112         1.404153         2.626589
 H         4.027918        -0.914970         1.928362
 H         0.892295        -2.071198         1.758186
 H         0.204267        -0.543060         2.494087
 H         0.283559        -0.408582        -0.510155
 H         3.174434        -0.831492        -1.573426
