19
Iteration:  2374charge 0 multiplicity 1
 C         1.908910         2.226436        -0.665016
 C         1.944843         0.966330         0.336520
 C         2.213674         1.012997         1.919138
 C         2.460449        -0.503543         1.763328
 O         3.257672        -1.429998         2.437275
 C         1.012076        -0.994669         1.644471
 C         1.022404        -0.317278         0.326583
 C         2.468316        -0.412144         0.220898
 O         3.433947        -0.921762        -0.623611
 H         0.865606         2.409157        -1.011251
 H         2.176571         3.167406        -0.107879
 H         2.577092         2.230339        -1.566137
 H         3.076883         1.550436         2.076592
 H         1.412455         1.272610         2.534744
 H         4.108501        -1.071846         2.797815
 H         0.762103        -2.011230         1.580760
 H         0.403700        -0.471038         2.341579
 H         0.218712        -0.533209        -0.418446
 H         3.734701        -1.643739        -0.051410
