19
Iteration:  2062charge 0 multiplicity 1
 C         1.976170         2.119236        -0.587761
 C         1.986525         0.940542         0.401585
 C         2.482590         0.977703         1.856164
 C         2.384421        -0.611044         1.791084
 O         3.347625        -1.253388         2.570478
 C         0.839649        -1.022751         1.692539
 C         0.926545        -0.223231         0.254621
 C         2.430153        -0.451869         0.262135
 O         3.288002        -0.857212        -0.798840
 H         1.356220         2.999318        -0.108326
 H         3.090436         2.200893        -0.825702
 H         1.413143         1.798885        -1.580897
 H         3.590610         1.307696         1.718178
 H         1.957311         1.382745         2.680061
 H         4.147973        -0.680238         2.766693
 H         0.685441        -2.107573         1.478300
 H         0.277057        -0.771873         2.552334
 H         0.212577        -0.268518        -0.514385
 H         3.549352        -1.816881        -0.805711
