19
Iteration:  2319
 C         1.786568         2.205249        -0.532587
 C         2.048071         0.931814         0.322484
 C         2.494464         0.874143         1.841808
 C         2.390778        -0.641879         1.798162
 O         3.178893        -1.224527         2.865024
 C         0.935490        -0.997348         1.637124
 C         1.026674        -0.332915         0.189069
 C         2.471401        -0.468637         0.110804
 O         3.442654        -0.835232        -0.845607
 H         0.999247         2.127506        -1.356272
 H         1.541663         3.114873         0.085738
 H         2.686499         2.426026        -1.137834
 H         3.430855         1.303275         1.895866
 H         1.853664         1.274772         2.564446
 H         4.009675        -0.655959         2.905416
 H         0.966721        -2.034133         1.500547
 H         0.345797        -0.717662         2.515151
 H         0.313103        -0.365423        -0.592766
 H         2.838373        -1.351218        -1.336257
