19
Iteration:  2308charge 0 multiplicity 1
 C         1.830929         2.168216        -0.534583
 C         1.976815         0.901984         0.313274
 C         2.449820         0.932685         1.792155
 C         2.503075        -0.610417         1.806001
 O         3.091672        -1.246473         2.872363
 C         0.963414        -1.008787         1.655231
 C         1.013689        -0.356486         0.323847
 C         2.575233        -0.426988         0.073980
 O         3.425863        -0.834987        -0.918487
 H         1.082148         2.094734        -1.372655
 H         1.445347         2.904328         0.210414
 H         2.811279         2.544909        -0.864019
 H         3.368704         1.400648         1.974613
 H         1.749883         1.304281         2.501386
 H         3.990292        -0.900294         2.980828
 H         0.714221        -2.038934         1.609917
 H         0.273816        -0.523233         2.365006
 H         0.252110        -0.351266        -0.414663
 H         3.047858        -1.323498        -1.657611
