19
Iteration:   765
 C         1.841327         2.092305        -0.602273
 C         1.939169         0.941217         0.404391
 C         2.326381         1.045887         1.873911
 C         2.371800        -0.524488         1.783941
 O         3.346840        -1.180693         2.577556
 C         0.921495        -0.974399         1.700283
 C         1.031036        -0.408489         0.274344
 C         2.516970        -0.432260         0.204623
 O         3.400013        -1.037790        -0.700211
 H         2.381633         2.976011        -0.189289
 H         2.427201         1.891962        -1.487781
 H         0.905438         2.372869        -1.074623
 H         3.325329         1.641420         2.072017
 H         1.539652         1.427929         2.594785
 H         4.264720        -0.979994         2.179441
 H         1.027400        -2.080130         1.652199
 H         0.297585        -0.461864         2.384069
 H         0.127233        -0.290748        -0.407445
 H         3.146360        -0.873840        -1.669602
