19
Iteration:  3222charge 0 multiplicity 1
 C         1.849263         2.075677        -0.504856
 C         1.954323         0.909326         0.429588
 C         2.377399         1.001479         1.818810
 C         2.391883        -0.556178         1.760702
 O         3.110126        -1.154786         2.835557
 C         0.935339        -1.073080         1.568171
 C         1.063506        -0.378100         0.155791
 C         2.581796        -0.449611         0.121799
 O         3.522315        -0.721653        -0.805457
 H         2.732095         2.173496        -1.198091
 H         1.129912         1.742163        -1.242987
 H         1.507247         2.939390         0.058965
 H         3.402692         1.484682         1.804576
 H         1.816987         1.472007         2.648603
 H         3.392954        -2.055690         2.610400
 H         0.675343        -2.172967         1.481068
 H         0.294773        -0.729185         2.358148
 H         0.348084        -0.463353        -0.627336
 H         3.511829        -1.690849        -0.817978
