19
Iteration:  4111charge 0 multiplicity 1
 C         1.800183         1.985081        -0.756599
 C         1.829510         0.937055         0.392147
 C         2.254927         1.018172         1.959012
 C         2.392094        -0.577945         1.788527
 O         3.280315        -1.379324         2.553634
 C         0.901009        -1.088956         1.473914
 C         0.979008        -0.300470         0.168478
 C         2.581424        -0.333404         0.286266
 O         3.709843        -0.552565        -0.425863
 H         2.403379         2.815392        -0.408294
 H         2.344909         1.589093        -1.668660
 H         0.727358         2.212736        -1.023806
 H         3.266509         1.481190         2.054135
 H         1.509709         1.489646         2.652593
 H         2.864102        -2.271277         2.498311
 H         0.958545        -2.219165         1.205681
 H         0.053244        -1.010162         2.160731
 H         0.304269        -0.468241        -0.594874
 H         3.651113        -1.350353        -0.894895
