19
Iteration:  1962
 C         1.789204         2.198509        -0.540105
 C         1.918612         0.938571         0.325340
 C         2.573118         0.891968         1.758942
 C         2.461650        -0.591296         1.803142
 O         3.216389        -1.317715         2.697354
 C         0.980703        -0.882752         1.672539
 C         0.944076        -0.207958         0.338334
 C         2.493841        -0.431135         0.125664
 O         3.337410        -0.955009        -0.796098
 H         0.922616         2.075316        -1.202474
 H         1.778432         3.095727         0.144337
 H         2.759170         2.363705        -1.095315
 H         3.686979         1.197118         1.798741
 H         2.014099         1.278915         2.607624
 H         4.139919        -1.105667         2.645015
 H         0.877122        -1.927675         1.464717
 H         0.305435        -0.700422         2.494445
 H         0.133071        -0.006331        -0.428193
 H         3.351692        -1.884923        -0.903331
