19
Iteration:  2582charge 0 multiplicity 1
 C         1.830269         2.032767        -0.668095
 C         2.016034         1.005450         0.403763
 C         2.219789         1.005488         1.962556
 C         2.357077        -0.606111         1.746466
 O         3.248978        -1.332476         2.520166
 C         0.920131        -1.033161         1.554942
 C         0.987123        -0.279620         0.188960
 C         2.495841        -0.362062         0.233348
 O         3.633456        -0.764476        -0.514585
 H         2.715113         2.511907        -0.968953
 H         1.317386         1.588798        -1.506283
 H         1.180511         2.811331        -0.290592
 H         3.147424         1.563434         2.287645
 H         1.374612         1.400953         2.593996
 H         4.085323        -1.592304         2.075555
 H         0.966907        -2.078703         1.459865
 H         0.265110        -0.672458         2.384444
 H         0.311400        -0.394832        -0.653076
 H         3.379379        -1.717420        -0.775226
