19
Iteration:  3666charge 0 multiplicity 1
 C         1.866331         2.173236        -0.653056
 C         1.988702         0.959150         0.388529
 C         2.184821         0.959944         1.867776
 C         2.387732        -0.549150         1.878696
 O         3.268373        -1.156816         2.775642
 C         1.000897        -1.133448         1.514147
 C         1.037979        -0.266955         0.228044
 C         2.592448        -0.420576         0.198213
 O         3.452012        -0.869711        -0.768421
 H         2.733414         2.764354        -0.664532
 H         1.900530         1.742635        -1.641602
 H         0.947566         2.703343        -0.595124
 H         3.065196         1.609558         2.091091
 H         1.420672         1.466186         2.537679
 H         3.000501        -2.051375         3.006966
 H         1.192363        -2.209299         1.215894
 H         0.122601        -1.149320         2.193816
 H         0.450690        -0.319402        -0.629428
 H         3.709673        -1.770676        -0.938269
