19
Iteration:  3275charge 0 multiplicity 1
 C         1.884653         2.092284        -0.461123
 C         2.006788         0.893209         0.397596
 C         2.303586         0.904563         1.923865
 C         2.379805        -0.530076         1.882557
 O         3.168367        -1.044934         2.913847
 C         1.012862        -1.075095         1.458994
 C         1.162300        -0.415363         0.133612
 C         2.666560        -0.384319         0.104053
 O         3.348324        -0.829213        -1.005498
 H         2.678725         2.752244        -0.055712
 H         2.004855         1.997517        -1.545021
 H         0.854180         2.505950        -0.292796
 H         3.272312         1.426475         2.161945
 H         1.501421         1.295866         2.633772
 H         2.621886        -1.685650         3.399134
 H         1.028726        -2.155825         1.444126
 H         0.087543        -0.754071         2.110967
 H         0.579589        -0.543239        -0.753927
 H         2.885573        -1.647952        -1.161596
