19
Iteration:   162charge 0 multiplicity 1
 C         1.770726         2.037887        -0.621297
 C         1.851024         0.963702         0.395876
 C         2.352778         1.082509         1.821195
 C         2.459497        -0.488801         1.773647
 O         3.182195        -1.254334         2.649686
 C         1.075897        -1.084639         1.604593
 C         0.985487        -0.301622         0.226696
 C         2.521008        -0.405021         0.201577
 O         3.425344        -0.940586        -0.706041
 H         1.564733         1.470978        -1.529121
 H         1.024350         2.780819        -0.324400
 H         2.800721         2.507558        -0.663353
 H         3.424801         1.487052         1.897810
 H         1.854720         1.543428         2.664677
 H         4.039273        -0.919349         2.961495
 H         1.146868        -2.201304         1.370884
 H         0.251579        -0.987651         2.431782
 H         0.479493        -0.524529        -0.663952
 H         4.254244        -0.672922        -0.321128
