19
Iteration:  2092charge 0 multiplicity 1
 C         1.931004         2.156109        -0.488445
 C         1.923829         0.929770         0.366475
 C         2.400507         0.986566         1.860399
 C         2.482686        -0.564453         1.813358
 O         3.249056        -1.287785         2.700327
 C         1.005503        -0.911978         1.721875
 C         0.974580        -0.326675         0.240794
 C         2.517064        -0.443900         0.116756
 O         3.291531        -0.936570        -0.968742
 H         2.180014         3.029353         0.087383
 H         2.853457         2.171093        -1.134610
 H         0.994606         2.283945        -1.145026
 H         3.325414         1.559626         1.792456
 H         1.733483         1.314636         2.658488
 H         3.596648        -0.856370         3.491174
 H         0.863529        -1.987923         1.712960
 H         0.442050        -0.406467         2.576893
 H         0.116244        -0.501295        -0.394894
 H         3.191390        -1.910580        -1.181892
