19
Iteration:  4128charge 0 multiplicity 1
 C         1.859701         2.022163        -0.669307
 C         1.816328         1.017895         0.481672
 C         2.195469         0.965626         1.953150
 C         2.316554        -0.566396         1.814408
 O         3.269168        -1.278768         2.606291
 C         0.999885        -1.174690         1.415417
 C         1.020150        -0.334909         0.155462
 C         2.480107        -0.338385         0.178692
 O         3.716824        -0.639450        -0.573497
 H         2.339064         3.036406        -0.436713
 H         2.495254         1.521626        -1.379180
 H         0.852855         2.058380        -1.100744
 H         3.189897         1.380094         2.080223
 H         1.647924         1.310567         2.834229
 H         2.910840        -1.933550         3.235873
 H         1.126622        -2.210470         1.251335
 H         0.228989        -0.909804         2.202122
 H         0.209457        -0.073941        -0.645670
 H         3.743713        -1.552745        -0.764466
