19
Iteration:  3196
 C         1.829718         2.057864        -0.744322
 C         1.971308         0.959029         0.432878
 C         2.253435         0.926892         1.967806
 C         2.329815        -0.548635         1.862373
 O         3.390893        -1.279793         2.617911
 C         0.843308        -0.939454         1.513163
 C         1.046710        -0.297319         0.171016
 C         2.560874        -0.379514         0.277088
 O         3.538802        -0.748365        -0.656906
 H         2.591774         2.039781        -1.490739
 H         1.008779         1.609986        -1.335398
 H         1.639465         3.070764        -0.334519
 H         3.246822         1.341402         2.235214
 H         1.439394         1.291911         2.715662
 H         3.271293        -2.214644         2.393696
 H         0.793729        -1.987405         1.366037
 H        -0.097396        -0.651232         2.212298
 H         0.317914        -0.647497        -0.625847
 H         3.675110        -1.716358        -0.513340
