19
Iteration:   580charge 0 multiplicity 1
 C         1.847236         2.117068        -0.627699
 C         1.923631         0.951907         0.347942
 C         2.163931         0.967176         1.883446
 C         2.419261        -0.505338         1.815669
 O         3.291930        -1.168244         2.646312
 C         1.060147        -1.072854         1.620039
 C         1.083461        -0.424574         0.266944
 C         2.526684        -0.378919         0.200586
 O         3.379973        -0.980123        -0.768995
 H         0.951544         1.896406        -1.305769
 H         1.853110         3.127227        -0.043200
 H         2.710256         2.047574        -1.267420
 H         3.163149         1.458391         2.142462
 H         1.347408         1.292905         2.435725
 H         3.556290        -0.347449         3.144443
 H         1.240058        -2.157800         1.510631
 H         0.297807        -0.746701         2.400902
 H         0.391347        -0.555361        -0.641028
 H         4.213618        -0.488031        -0.746089
