19
Iteration:  3781
 C         1.778411         2.031772        -0.580655
 C         1.979149         0.957065         0.455389
 C         2.279656         1.025531         1.882511
 C         2.350796        -0.580706         1.847044
 O         3.164688        -1.208929         2.761443
 C         0.918065        -1.126483         1.429202
 C         1.163285        -0.347468         0.109420
 C         2.560593        -0.348485         0.191428
 O         3.568807        -0.779783        -0.655356
 H         2.713566         2.563362        -0.775454
 H         1.482377         1.628309        -1.543255
 H         0.940602         2.673019        -0.295815
 H         3.201246         1.458781         2.182636
 H         1.534683         1.641655         2.427710
 H         3.908997        -1.650261         2.336552
 H         1.092175        -2.208977         1.336218
 H         0.084879        -0.881840         2.125255
 H         0.509277        -0.151658        -0.708342
 H         3.212309        -1.564218        -1.029635
