19
Iteration:  2065charge 0 multiplicity 1
 C         1.963695         2.121967        -0.589936
 C         2.009868         0.945719         0.397469
 C         2.474964         0.963710         1.833561
 C         2.402425        -0.629939         1.791239
 O         3.363987        -1.256419         2.601384
 C         0.825729        -1.020823         1.691677
 C         0.950310        -0.247246         0.253053
 C         2.415453        -0.441921         0.232468
 O         3.264088        -0.853075        -0.795471
 H         1.556483         3.052608        -0.099873
 H         2.993998         2.267857        -0.827813
 H         1.412511         1.897950        -1.446367
 H         3.517267         1.328253         1.706025
 H         1.882253         1.461443         2.679346
 H         4.097709        -0.669630         2.887997
 H         0.733138        -2.127747         1.527689
 H         0.211716        -0.689077         2.522738
 H         0.228764        -0.235930        -0.549296
 H         3.570846        -1.816490        -0.859030
