19
Iteration:  1209charge 0 multiplicity 1
 C         1.753863         2.159245        -0.504010
 C         2.050463         0.967788         0.337146
 C         2.395343         0.954591         1.827465
 C         2.452439        -0.504760         1.846082
 O         3.393942        -1.201062         2.605704
 C         0.926520        -0.883665         1.630521
 C         1.047240        -0.262236         0.282892
 C         2.500481        -0.494315         0.176009
 O         3.251741        -1.124859        -0.822741
 H         0.781655         2.232653        -1.023534
 H         1.650870         3.115660         0.102943
 H         2.549826         2.479110        -1.258858
 H         3.432724         1.377176         2.146616
 H         1.517049         1.341053         2.432329
 H         4.081101        -0.599572         2.933927
 H         0.706281        -1.964177         1.710755
 H         0.401053        -0.363675         2.376763
 H         0.511416        -0.503095        -0.716084
 H         3.293388        -2.132109        -0.639157
