19
Iteration:  3452charge 0 multiplicity 1
 C         1.813449         2.145980        -0.432056
 C         1.891276         0.883466         0.370360
 C         2.268545         0.904919         1.778977
 C         2.504262        -0.601430         1.813779
 O         3.092311        -1.099823         2.971949
 C         0.984951        -0.980896         1.619990
 C         1.043482        -0.407510         0.183487
 C         2.683346        -0.469647         0.065370
 O         3.434016        -0.924774        -1.037820
 H         2.838255         2.572622        -0.671388
 H         1.465838         1.997775        -1.430635
 H         1.404386         2.971586         0.173071
 H         3.157112         1.584039         1.853209
 H         1.427185         1.279207         2.418170
 H         3.608493        -0.350521         3.309002
 H         1.058353        -2.039909         1.455344
 H         0.263373        -0.559297         2.354402
 H         0.553327        -0.631708        -0.719764
 H         4.293358        -1.121316        -0.737322
