19
Iteration:   803
 C         1.742529         2.207792        -0.605719
 C         1.924662         1.009241         0.327173
 C         2.501665         0.992153         1.754672
 C         2.493551        -0.508595         1.786725
 O         3.222272        -1.239663         2.732998
 C         1.043776        -0.994330         1.681386
 C         1.020709        -0.378610         0.291571
 C         2.476008        -0.480064         0.138558
 O         3.383045        -1.035804        -0.737678
 H         1.476977         2.988539         0.093036
 H         2.702353         2.505114        -1.071387
 H         0.881901         2.121589        -1.314627
 H         3.568969         1.367870         1.767252
 H         1.916593         1.510197         2.532350
 H         3.902240        -0.628213         3.070020
 H         1.095517        -2.089274         1.598198
 H         0.196018        -0.931345         2.484141
 H         0.132843        -0.378454        -0.385414
 H         2.780523        -1.222601        -1.436394
