19
Iteration:  2747
 C         1.809036         2.135676        -0.603645
 C         1.940893         0.915981         0.349595
 C         2.288645         0.932613         1.893965
 C         2.368901        -0.656609         1.821954
 O         3.278287        -1.199542         2.644466
 C         0.872178        -0.964245         1.612924
 C         1.074279        -0.297520         0.194005
 C         2.557696        -0.480262         0.223901
 O         3.559289        -0.744101        -0.731475
 H         2.391330         2.990089        -0.237564
 H         2.245777         1.830263        -1.589668
 H         0.741317         2.445279        -0.875533
 H         3.220894         1.409151         2.176123
 H         1.508564         1.148477         2.636592
 H         3.154317        -2.145032         2.517705
 H         0.767596        -2.004909         1.362790
 H         0.158518        -0.496213         2.407355
 H         0.503045        -0.469721        -0.736841
 H         3.746649        -1.609650        -0.427044
