19
Iteration:  1861charge 0 multiplicity 1
 C         1.948418         1.959245        -0.632212
 C         1.883220         1.044555         0.475480
 C         2.567059         1.014696         1.839011
 C         2.436557        -0.511184         1.770837
 O         3.244086        -1.372342         2.530377
 C         0.974117        -1.001633         1.771786
 C         0.938567        -0.175856         0.353288
 C         2.437480        -0.386155         0.178748
 O         3.266877        -0.865450        -0.762570
 H         2.731287         1.671384        -1.332033
 H         1.032360         2.125967        -1.171514
 H         2.385792         2.843657        -0.106667
 H         3.553855         1.537632         1.862915
 H         1.888634         1.536882         2.499030
 H         4.183336        -1.311334         2.195009
 H         1.022635        -2.008284         1.544333
 H         0.202774        -0.847226         2.524232
 H         0.299715        -0.302264        -0.472611
 H         3.059581        -1.745944        -1.152889
