19
Iteration:   448charge 0 multiplicity 1
 C         1.776582         2.083468        -0.548242
 C         1.823894         0.896607         0.300463
 C         2.149941         0.999739         1.794004
 C         2.441117        -0.558390         1.742709
 O         3.272319        -1.085289         2.829208
 C         0.977813        -1.132841         1.612813
 C         1.055975        -0.400713         0.139252
 C         2.623551        -0.465919         0.227262
 O         3.508789        -0.867036        -0.751632
 H         1.712307         2.929268         0.255023
 H         2.746986         2.281945        -1.146048
 H         0.909133         2.023371        -1.244330
 H         3.145050         1.639214         1.857856
 H         1.485833         1.534554         2.551065
 H         4.208480        -0.992494         2.505069
 H         0.924221        -2.158261         1.311646
 H         0.205438        -0.982691         2.272136
 H         0.370970        -0.408732        -0.614725
 H         4.373726        -0.680212        -0.451872
