19
Iteration:  1095
 C         1.977987         1.995761        -0.751438
 C         1.960861         1.020057         0.404923
 C         2.459771         1.000247         1.864998
 C         2.433797        -0.545029         1.750576
 O         3.393614        -1.335304         2.569139
 C         0.986700        -0.929798         1.791305
 C         0.917234        -0.302213         0.375585
 C         2.355353        -0.389332         0.193075
 O         3.217613        -0.859124        -0.753454
 H         2.522832         1.513807        -1.636770
 H         0.967174         2.303094        -1.134293
 H         2.449519         2.930176        -0.407433
 H         3.380680         1.477766         2.088180
 H         1.702658         1.528030         2.636675
 H         4.253463        -0.991535         2.295323
 H         0.900571        -1.962749         1.580212
 H         0.375774        -0.632657         2.641471
 H         0.176569        -0.394044        -0.353798
 H         3.155903        -1.839923        -0.555521
