19
Iteration:  4736
 C         1.705941         2.147349        -0.378246
 C         1.939599         0.903320         0.305313
 C         2.286771         0.931897         1.767790
 C         2.472922        -0.536210         1.759083
 O         3.084548        -1.248225         2.749446
 C         0.933463        -0.978155         1.613529
 C         1.146964        -0.499847         0.143426
 C         2.677504        -0.375562         0.185964
 O         3.628122        -0.740196        -0.723523
 H         1.122317         2.958096         0.066976
 H         2.608351         2.682380        -0.793206
 H         1.087730         1.998138        -1.304680
 H         3.233041         1.600858         1.746005
 H         1.514458         1.390499         2.365324
 H         2.909294        -2.187147         2.722609
 H         0.835256        -2.105853         1.690172
 H         0.149373        -0.519549         2.203908
 H         0.584358        -0.548168        -0.817736
 H         3.379169        -1.546071        -1.296041
