19
Iteration:  1354charge 0 multiplicity 1
 C         1.836350         2.205203        -0.491933
 C         1.939493         0.923444         0.330280
 C         2.553661         0.980890         1.694461
 C         2.504341        -0.579542         1.743617
 O         3.262372        -1.246889         2.788165
 C         0.974615        -0.914451         1.708657
 C         0.982898        -0.372731         0.291124
 C         2.415576        -0.502090         0.164375
 O         3.260006        -0.935524        -0.857512
 H         2.588364         2.131739        -1.310353
 H         0.918649         2.604340        -0.931562
 H         2.046504         3.104253         0.086176
 H         3.634647         1.434398         1.578095
 H         2.051548         1.430163         2.535365
 H         4.063273        -0.705933         2.867449
 H         0.858781        -2.005167         1.712050
 H         0.425139        -0.594897         2.483453
 H         0.202955        -0.455668        -0.518741
 H         3.132516        -1.903494        -0.927320
