19
Iteration:  4134
 C         1.859779         2.038245        -0.617600
 C         1.849150         0.985624         0.452295
 C         2.189778         0.932856         1.959191
 C         2.338278        -0.584457         1.780894
 O         3.250875        -1.233699         2.610765
 C         0.962989        -1.168536         1.450772
 C         1.048590        -0.325152         0.159486
 C         2.541250        -0.305154         0.167202
 O         3.662121        -0.639977        -0.608961
 H         2.327245         2.932884        -0.342920
 H         2.586262         1.557287        -1.330964
 H         0.879046         2.080116        -1.114524
 H         3.235215         1.384760         2.056350
 H         1.502419         1.281389         2.794953
 H         2.827042        -1.707449         3.342009
 H         1.083487        -2.327101         1.235223
 H         0.168172        -1.072006         2.169539
 H         0.367328        -0.342517        -0.632325
 H         3.716178        -1.654779        -0.679448
