19
Iteration:  2210charge 0 multiplicity 1
 C         2.008162         2.092789        -0.620058
 C         1.802425         0.962972         0.373392
 C         2.382813         0.995500         1.823121
 C         2.347033        -0.531338         1.787848
 O         3.343355        -1.389446         2.364429
 C         0.891215        -0.949349         1.790088
 C         1.002232        -0.322292         0.212996
 C         2.448882        -0.386576         0.265265
 O         3.436729        -0.840846        -0.581769
 H         2.785461         1.859001        -1.328832
 H         1.101868         2.286223        -1.178579
 H         2.111564         2.904951         0.030338
 H         3.394905         1.409978         1.858642
 H         1.757175         1.562363         2.643281
 H         4.079459        -0.818597         2.560754
 H         0.837711        -2.014046         1.848916
 H         0.244788        -0.517578         2.616350
 H         0.312078        -0.634324        -0.573887
 H         3.069570        -1.679868        -0.841971
