19
Iteration:  3329charge 0 multiplicity 1
 C         1.911861         2.113993        -0.681927
 C         1.832749         0.978608         0.434092
 C         2.319170         0.999950         1.874788
 C         2.402702        -0.570846         1.748832
 O         3.240894        -1.293384         2.597743
 C         0.928363        -1.026902         1.579066
 C         0.998873        -0.335861         0.202081
 C         2.464347        -0.462708         0.248974
 O         3.574807        -0.774371        -0.543002
 H         2.385537         3.016073        -0.261198
 H         2.331716         1.672192        -1.574237
 H         0.986008         2.576795        -1.120028
 H         3.349494         1.436508         1.803771
 H         1.737865         1.557474         2.637127
 H         3.668485        -1.945608         2.036041
 H         0.956243        -2.067238         1.573806
 H         0.320001        -0.483657         2.413212
 H         0.211210        -0.353767        -0.550867
 H         3.476936        -1.658920        -0.939529
