19
Iteration:  4369charge 0 multiplicity 1
 C         1.805725         2.100659        -0.473337
 C         1.997222         0.978525         0.415457
 C         2.152481         0.984012         1.986502
 C         2.406655        -0.582273         1.837344
 O         3.126939        -1.289806         2.813767
 C         0.961456        -1.143444         1.388873
 C         1.170186        -0.446566         0.015760
 C         2.629557        -0.361123         0.178364
 O         3.572272        -0.684871        -0.836933
 H         2.635730         2.735491        -0.872620
 H         1.207187         1.890931        -1.291452
 H         1.132267         2.717519         0.086621
 H         2.962858         1.615361         2.342589
 H         1.248981         1.272020         2.621744
 H         3.566011        -0.613792         3.382627
 H         1.049819        -2.250701         1.296523
 H         0.029508        -0.851369         1.936933
 H         0.606415        -0.662442        -0.887555
 H         3.673454        -1.597260        -0.682120
