19
Iteration:  2655charge 0 multiplicity 1
 C         1.841719         2.187871        -0.421514
 C         1.865466         0.906852         0.347315
 C         2.162765         1.033782         1.927181
 C         2.408437        -0.515435         1.758805
 O         3.203374        -1.114221         2.692315
 C         0.966722        -1.132482         1.550424
 C         0.994899        -0.337784         0.198205
 C         2.638869        -0.426917         0.165398
 O         3.674640        -0.969177        -0.758529
 H         2.913630         2.170485        -0.979411
 H         1.002025         2.096535        -1.206501
 H         1.796604         3.164251         0.120090
 H         3.139798         1.487144         2.175414
 H         1.292183         1.368187         2.465323
 H         3.313346        -2.101694         2.588539
 H         0.683459        -2.212287         1.401315
 H         0.330480        -0.585377         2.342419
 H         0.425126        -0.617391        -0.701845
 H         3.289739        -1.005848        -1.696108
