19
Iteration:  3074charge 0 multiplicity 1
 C         1.768270         2.138898        -0.591154
 C         1.957889         1.000154         0.318656
 C         2.378820         1.036480         1.836139
 C         2.418223        -0.562785         1.874038
 O         3.033371        -1.353531         2.959914
 C         1.052058        -1.123193         1.566533
 C         1.174196        -0.326441         0.145045
 C         2.647457        -0.321597         0.239589
 O         3.392606        -0.810025        -0.907832
 H         2.284492         3.012252        -0.215998
 H         2.076199         1.803628        -1.604273
 H         0.680519         2.365555        -0.536012
 H         3.402634         1.440590         1.833283
 H         1.595394         1.570652         2.489961
 H         3.936707        -1.488390         2.676565
 H         1.283686        -2.171617         1.476853
 H         0.249239        -0.798144         2.324750
 H         0.759365        -0.633093        -0.777570
 H         2.920544        -1.562035        -1.403958
