19
Iteration:   750charge 0 multiplicity 1
 C         1.902742         2.054335        -0.700427
 C         1.941333         0.960990         0.360512
 C         2.292213         1.062808         1.940192
 C         2.413282        -0.437267         1.826680
 O         3.358009        -1.238462         2.486246
 C         0.967250        -1.006097         1.709355
 C         0.971692        -0.360961         0.305124
 C         2.453958        -0.418792         0.239625
 O         3.425285        -0.999146        -0.645877
 H         2.500092         2.936627        -0.374151
 H         2.195421         1.641807        -1.717617
 H         0.793279         2.482092        -0.574760
 H         3.217999         1.461781         2.113960
 H         1.475464         1.436880         2.612829
 H         4.258313        -1.277464         2.125028
 H         0.750365        -2.105387         1.700385
 H         0.203945        -0.650720         2.397835
 H         0.433879        -0.690182        -0.675123
 H         3.103391        -0.681505        -1.466230
