19
Iteration:  1063
 C         1.852145         2.043376        -0.649000
 C         1.889866         0.986430         0.373002
 C         2.505688         1.118712         1.853030
 C         2.497797        -0.480068         1.810474
 O         3.366995        -1.351855         2.497699
 C         1.009014        -0.908465         1.712462
 C         0.941465        -0.253527         0.353279
 C         2.403621        -0.452634         0.230110
 O         3.286875        -1.063174        -0.701038
 H         2.545646         1.995059        -1.548313
 H         0.938820         2.427456        -1.171861
 H         2.268361         2.953603        -0.177387
 H         3.476758         1.463937         1.811689
 H         1.822644         1.601563         2.571611
 H         3.978152        -0.757048         2.951329
 H         1.077084        -1.901741         1.405229
 H         0.199180        -0.841988         2.423577
 H         0.114003        -0.304581        -0.295176
 H         2.693565        -1.635051        -1.162121
