19
Iteration:  4117
 C         1.835832         1.964033        -0.758970
 C         1.797045         0.986419         0.470263
 C         2.247289         1.020564         1.977543
 C         2.376135        -0.573898         1.815864
 O         3.296862        -1.358339         2.573484
 C         0.957470        -1.120594         1.441138
 C         0.943508        -0.317090         0.142208
 C         2.568001        -0.370248         0.253777
 O         3.727156        -0.576361        -0.461762
 H         2.214746         3.018903        -0.477848
 H         2.325795         1.683925        -1.676757
 H         0.824481         2.355182        -1.086424
 H         3.259885         1.377291         2.076076
 H         1.516646         1.503155         2.609479
 H         2.792323        -2.176333         2.679352
 H         1.003788        -2.145416         1.206778
 H         0.046327        -0.978837         2.110503
 H         0.083853        -0.256347        -0.671626
 H         3.631247        -1.468086        -0.892305
