19
Iteration:  1450charge 0 multiplicity 1
 C         1.876386         1.947907        -0.650987
 C         1.922941         0.932313         0.408973
 C         2.500042         1.074594         1.821672
 C         2.494411        -0.595347         1.792722
 O         3.347571        -1.402915         2.513525
 C         0.983594        -0.859484         1.787335
 C         0.854559        -0.174534         0.412863
 C         2.398483        -0.396146         0.196670
 O         3.363071        -0.887651        -0.746779
 H         2.273390         2.901865        -0.225254
 H         2.516427         1.723781        -1.539392
 H         0.890977         2.054526        -1.139694
 H         3.476026         1.541116         1.731622
 H         1.858325         1.637643         2.590248
 H         4.207398        -1.235713         2.139680
 H         0.682225        -1.979114         1.676947
 H         0.262723        -0.451104         2.707389
 H        -0.022656        -0.157446        -0.291367
 H         2.892556        -1.526205        -1.390252
