19
Iteration:  2872
 C         1.821682         2.341585        -0.529197
 C         1.954901         0.990927         0.345507
 C         2.356392         0.933342         1.845203
 C         2.467506        -0.592873         1.820814
 O         3.104921        -1.128768         2.954011
 C         1.029076        -1.122703         1.496154
 C         1.038696        -0.409351         0.162709
 C         2.552053        -0.506660         0.124737
 O         3.412888        -0.932391        -0.875640
 H         2.784521         2.794509        -0.723662
 H         1.423303         2.217083        -1.503888
 H         1.274687         3.042060         0.034012
 H         3.316930         1.494630         1.983292
 H         1.683821         1.301238         2.643252
 H         3.415215        -2.007554         2.709992
 H         1.006151        -2.260700         1.258144
 H         0.307215        -1.060471         2.272037
 H         0.321569        -0.455350        -0.648672
 H         4.302149        -0.681889        -0.713481
