19
Iteration:  2634
 C         1.853215         2.195446        -0.528683
 C         1.900545         1.002123         0.285677
 C         2.217396         0.935250         1.798581
 C         2.384111        -0.533015         1.833359
 O         3.309892        -1.235163         2.645255
 C         0.936866        -1.044848         1.543835
 C         1.131581        -0.463356         0.131641
 C         2.497174        -0.391985         0.221589
 O         3.545663        -0.836316        -0.509383
 H         2.833081         2.425534        -1.149746
 H         0.946580         2.155538        -1.224509
 H         1.697123         3.052322         0.169105
 H         3.226252         1.319907         2.055236
 H         1.469674         1.205635         2.529757
 H         3.458495        -2.059703         2.173627
 H         0.859421        -2.153162         1.528174
 H        -0.013113        -0.637351         2.147278
 H         0.407084        -0.494086        -0.675112
 H         3.157682        -1.045938        -1.394724
