19
Iteration:  3159
 C         1.990706         2.048648        -0.593009
 C         1.816617         0.960592         0.327268
 C         2.197047         1.028354         1.873165
 C         2.350089        -0.446656         1.806460
 O         3.299752        -1.283017         2.347616
 C         0.972212        -1.041006         1.637648
 C         0.924291        -0.387730         0.261559
 C         2.538956        -0.377848         0.216811
 O         3.634210        -0.793075        -0.476506
 H         3.011005         1.992962        -1.070633
 H         1.202116         2.008155        -1.363920
 H         1.739866         3.055397        -0.251901
 H         3.139419         1.586959         1.848221
 H         1.593364         1.478232         2.642117
 H         2.796993        -1.847361         2.994658
 H         1.104223        -2.178674         1.341595
 H         0.218234        -0.939755         2.399676
 H         0.116184        -0.629701        -0.403025
 H         3.436956        -1.694081        -0.681393
