19
Iteration:  4771
 C         1.726072         2.136563        -0.530998
 C         1.894799         0.913387         0.420717
 C         2.415999         0.857452         1.806488
 C         2.367291        -0.680487         1.851330
 O         3.223263        -1.129829         2.837185
 C         0.909389        -1.139506         1.430784
 C         0.997209        -0.311153         0.148431
 C         2.541854        -0.358540         0.122517
 O         3.629915        -0.684609        -0.762424
 H         1.303085         3.033131        -0.025596
 H         2.747550         2.308417        -0.936620
 H         1.192038         1.725955        -1.386055
 H         3.471441         1.312899         1.629456
 H         1.999201         1.434052         2.684545
 H         2.739943        -1.870071         3.206311
 H         1.073427        -2.243821         1.048358
 H         0.028719        -1.108173         2.090467
 H         0.341899        -0.186238        -0.629453
 H         3.996291        -1.358451        -0.114582
