19
Iteration:   259charge 0 multiplicity 1
 C         1.768083         2.080581        -0.736083
 C         1.839855         0.980347         0.304003
 C         2.226944         1.018641         1.884032
 C         2.461837        -0.488843         1.864010
 O         3.349730        -1.250533         2.667547
 C         1.021476        -1.133593         1.541658
 C         1.095480        -0.300197         0.219077
 C         2.533052        -0.397048         0.248016
 O         3.416234        -0.946762        -0.585906
 H         0.818620         2.252759        -1.264696
 H         2.049093         2.873725        -0.037145
 H         2.712948         1.960246        -1.404981
 H         3.279800         1.543789         1.974223
 H         1.470055         1.512493         2.549950
 H         3.812361        -0.667116         3.301355
 H         1.220269        -2.232866         1.216165
 H         0.249535        -1.072099         2.349740
 H         0.506773        -0.329542        -0.654427
 H         3.037035        -0.793779        -1.471563
