19
Iteration:  2778
 C         1.870466         2.039758        -0.530704
 C         1.863044         0.994057         0.461507
 C         2.428530         1.067311         1.818629
 C         2.365786        -0.526610         1.765560
 O         3.309893        -1.266207         2.547553
 C         0.886945        -1.059479         1.538737
 C         0.981040        -0.426061         0.142898
 C         2.452624        -0.381577         0.190270
 O         3.523923        -0.799431        -0.597139
 H         2.348578         3.060186        -0.218055
 H         2.587492         1.637576        -1.321791
 H         0.846559         2.360576        -0.937320
 H         3.448159         1.502584         1.781975
 H         1.803381         1.436250         2.637409
 H         2.979506        -2.177900         2.743173
 H         0.765599        -2.113034         1.396327
 H         0.059930        -0.852090         2.290284
 H         0.352759        -0.389061        -0.740305
 H         4.058737        -0.881880         0.268942
