19
Iteration:  3648
 C         1.822027         2.007474        -0.580384
 C         1.968258         0.958193         0.397880
 C         2.216517         1.045738         1.914459
 C         2.401610        -0.508097         1.779360
 O         3.131973        -1.154469         2.826760
 C         1.039880        -1.104259         1.485237
 C         1.198287        -0.347760         0.177985
 C         2.701285        -0.267905         0.199459
 O         3.405670        -0.892593        -0.822553
 H         2.847386         2.575139        -0.633155
 H         1.494956         1.678351        -1.586655
 H         1.035398         2.749062        -0.233250
 H         3.145095         1.524713         2.300625
 H         1.455435         1.339320         2.691085
 H         3.290359        -2.076781         2.604651
 H         0.923130        -2.164182         1.406753
 H         0.242489        -0.949773         2.305089
 H         0.625410        -0.549541        -0.751778
 H         2.941064        -1.743399        -0.902880
