19
Iteration:  4220
 C         1.732886         2.150831        -0.533092
 C         1.970841         0.955568         0.366101
 C         2.287317         0.981500         1.915860
 C         2.362566        -0.586760         1.862132
 O         3.083911        -1.207915         2.953630
 C         0.995605        -1.277034         1.290310
 C         1.117857        -0.373120         0.082531
 C         2.632814        -0.324602         0.157593
 O         3.589086        -0.715011        -0.701130
 H         2.596657         2.809472        -0.727459
 H         1.235387         1.961964        -1.562664
 H         0.979189         2.817321         0.074747
 H         3.265178         1.406130         2.052580
 H         1.648629         1.424933         2.633806
 H         3.945174        -1.507416         2.598997
 H         1.247913        -2.316935         1.133859
 H         0.081755        -1.132626         1.891173
 H         0.571453        -0.522614        -0.830642
 H         3.235804        -1.465332        -1.233927
