19
Iteration:  1515
 C         1.917020         2.092619        -0.668042
 C         1.920237         0.942148         0.370471
 C         2.627958         1.019851         1.830074
 C         2.522905        -0.557199         1.760413
 O         3.259616        -1.412302         2.577829
 C         1.020779        -0.899835         1.793697
 C         0.907538        -0.187018         0.470835
 C         2.406698        -0.467820         0.175609
 O         3.164244        -0.867195        -0.875041
 H         0.987969         2.705954        -0.606779
 H         2.811183         2.721803        -0.442621
 H         2.024072         1.456866        -1.551339
 H         3.494223         1.578377         1.667101
 H         1.867372         1.524535         2.515477
 H         4.099399        -0.946014         2.861518
 H         0.836967        -1.984335         1.588763
 H         0.494372        -0.680423         2.736232
 H         0.051209        -0.428517        -0.252840
 H         3.434760        -1.774775        -0.809074
