19
Iteration:  1170charge 0 multiplicity 1
 C         1.713145         2.120859        -0.639742
 C         1.931607         0.998521         0.331353
 C         2.530100         1.023661         1.749311
 C         2.501201        -0.522189         1.853859
 O         3.237860        -1.376057         2.733925
 C         1.074353        -0.992225         1.715631
 C         1.012321        -0.186909         0.367358
 C         2.503685        -0.376340         0.109622
 O         3.283497        -1.012125        -0.791904
 H         1.230880         1.671934        -1.494056
 H         1.342471         3.034763        -0.207413
 H         2.705839         2.293031        -0.976042
 H         3.536820         1.397720         1.640176
 H         2.066904         1.729395         2.518243
 H         3.961845        -0.898195         3.218723
 H         0.932795        -2.056762         1.458060
 H         0.242641        -0.629037         2.402913
 H         0.427635        -0.470682        -0.418247
 H         2.782007        -1.634787        -1.306018
