19
Iteration:   166charge 0 multiplicity 1
 C         1.774682         2.059269        -0.618195
 C         1.871552         0.947723         0.396366
 C         2.366309         1.062879         1.842152
 C         2.478836        -0.452625         1.786477
 O         3.180526        -1.249927         2.645246
 C         1.059659        -1.091347         1.597258
 C         0.963009        -0.358776         0.248057
 C         2.514441        -0.393083         0.192101
 O         3.437733        -0.930129        -0.713910
 H         1.483293         1.516157        -1.540282
 H         1.073186         2.895875        -0.401309
 H         2.747156         2.450566        -0.733908
 H         3.361459         1.445277         1.810310
 H         1.846309         1.486368         2.728418
 H         3.985622        -0.887346         3.078636
 H         1.072168        -2.112853         1.433441
 H         0.294602        -0.881683         2.236383
 H         0.298577        -0.512439        -0.736866
 H         4.364416        -0.794599        -0.354356
