19
Iteration:  2129charge 0 multiplicity 1
 C         1.796247         2.135938        -0.557743
 C         2.078886         0.944806         0.346093
 C         2.494019         0.942841         1.882736
 C         2.449589        -0.530771         1.909080
 O         3.219778        -1.345421         2.783500
 C         0.965887        -0.969715         1.625818
 C         1.013700        -0.325817         0.211712
 C         2.532121        -0.363828         0.064071
 O         3.291548        -0.907784        -0.861599
 H         2.469183         3.066155        -0.296433
 H         1.876709         1.789239        -1.625617
 H         0.764498         2.643171        -0.444120
 H         3.562822         1.306743         1.714838
 H         2.044411         1.586772         2.579112
 H         3.757598        -0.690912         3.221625
 H         0.892902        -2.092463         1.617507
 H         0.268435        -0.649001         2.349065
 H         0.326789        -0.362405        -0.644160
 H         2.662638        -1.538838        -1.249057
