19
Iteration:  4025
 C         1.866642         2.228888        -0.482994
 C         1.891270         1.029413         0.376580
 C         2.167352         0.977275         1.953289
 C         2.347031        -0.549220         1.819842
 O         3.128175        -1.159150         2.816025
 C         1.035648        -1.277896         1.404611
 C         1.112243        -0.417249         0.097274
 C         2.602753        -0.372477         0.114184
 O         3.609415        -0.852934        -0.772683
 H         2.747450         2.710632        -0.707852
 H         1.230565         2.064627        -1.325506
 H         1.355155         2.893528         0.086813
 H         3.098066         1.578617         2.259995
 H         1.210302         1.306933         2.439788
 H         3.415750        -0.707795         3.641088
 H         1.554165        -2.324364         1.250995
 H         0.195518        -1.389871         2.016757
 H         0.655796        -0.614954        -0.843228
 H         3.235968        -1.727688        -1.152682
