19
Iteration:  2113
 C         1.855318         2.162184        -0.508966
 C         1.918196         0.937221         0.401508
 C         2.486058         1.067765         1.781221
 C         2.487695        -0.529374         1.789325
 O         3.151137        -1.326969         2.734036
 C         1.039975        -0.948741         1.657990
 C         1.104676        -0.336996         0.318735
 C         2.534113        -0.482634         0.212504
 O         3.288988        -0.936334        -0.977016
 H         2.388853         2.923186        -0.023561
 H         2.371539         2.011452        -1.470917
 H         0.777229         2.357530        -0.581541
 H         3.497448         1.394215         1.898957
 H         1.679957         1.425456         2.508780
 H         3.484019        -0.817483         3.474999
 H         1.007351        -2.023872         1.556490
 H         0.263321        -0.471125         2.370315
 H         0.353058        -0.415181        -0.505172
 H         2.794447        -1.594067        -1.420669
