19
Iteration:  3260charge 0 multiplicity 1
 C         1.893799         2.259045        -0.411836
 C         1.930196         0.948496         0.333715
 C         2.315638         0.974480         1.741267
 C         2.448415        -0.642841         1.858527
 O         3.122605        -1.084264         3.016316
 C         0.989366        -1.143319         1.572667
 C         1.111223        -0.470576         0.183062
 C         2.626020        -0.452651         0.114435
 O         3.452798        -0.808362        -1.012596
 H         2.776784         2.875496        -0.339062
 H         1.670508         1.911909        -1.459645
 H         1.085635         2.965479        -0.209097
 H         3.311045         1.344588         1.811016
 H         1.643317         1.487765         2.412157
 H         2.613213        -1.783484         3.425682
 H         0.937737        -2.221715         1.414897
 H         0.235761        -0.734723         2.245010
 H         0.477403        -0.681308        -0.703479
 H         3.045664        -1.529595        -1.601849
