19
Iteration:  3012charge 0 multiplicity 1
 C         1.928367         2.146105        -0.561883
 C         1.934354         0.898529         0.378514
 C         2.223190         0.940749         1.833380
 C         2.339509        -0.570778         1.799790
 O         3.363657        -1.265255         2.567217
 C         0.852102        -0.992006         1.580852
 C         0.947871        -0.308115         0.206126
 C         2.561210        -0.530396         0.209920
 O         3.538367        -0.805413        -0.662068
 H         2.427421         3.094145        -0.305971
 H         2.281149         2.015703        -1.617484
 H         0.859542         2.551006        -0.555419
 H         3.148329         1.465355         2.090013
 H         1.494605         1.112063         2.622030
 H         3.823346        -0.565798         3.024901
 H         0.749806        -2.066479         1.560628
 H         0.096580        -0.676086         2.310793
 H         0.177330        -0.018288        -0.591137
 H         3.846711        -1.779187        -0.631836
