19
Iteration:  3001
 C         1.933091         2.169561        -0.571393
 C         1.887264         0.926077         0.351294
 C         2.263670         0.970281         1.898083
 C         2.348300        -0.596394         1.833724
 O         3.404090        -1.293359         2.511689
 C         0.806861        -1.017629         1.588045
 C         0.959426        -0.377928         0.141335
 C         2.471449        -0.388904         0.236883
 O         3.537580        -0.820022        -0.646028
 H         2.752657         2.788254        -0.154490
 H         2.176707         1.760873        -1.581246
 H         0.928183         2.670270        -0.650695
 H         3.288732         1.340693         1.988972
 H         1.566404         1.503881         2.570327
 H         3.852781        -0.642287         3.091257
 H         0.734667        -2.084104         1.490513
 H         0.126535        -0.568204         2.319231
 H         0.317422        -0.557080        -0.776130
 H         3.920131        -1.605108        -0.137019
