19
Iteration:  1853charge 0 multiplicity 1
 C         1.931337         2.032133        -0.633220
 C         1.820193         0.974709         0.440406
 C         2.528429         1.034163         1.831203
 C         2.483240        -0.487642         1.831639
 O         3.267288        -1.428299         2.526078
 C         0.916972        -0.924475         1.755131
 C         0.939631        -0.184345         0.363573
 C         2.435831        -0.409255         0.241413
 O         3.329019        -0.876946        -0.820675
 H         2.752219         1.686356        -1.235622
 H         1.065532         2.205503        -1.236215
 H         2.262401         2.983311        -0.286015
 H         3.595362         1.571677         1.661439
 H         2.099126         1.364685         2.840255
 H         4.107968        -1.493936         2.015855
 H         1.136303        -2.047147         1.670301
 H         0.097480        -0.604661         2.465007
 H         0.253619        -0.367182        -0.467161
 H         3.181780        -1.819181        -0.919818
