19
Iteration:  1054
 C         1.838837         2.119220        -0.627533
 C         1.935098         0.983384         0.384566
 C         2.500723         1.068834         1.782912
 C         2.523762        -0.530013         1.817379
 O         3.393025        -1.324955         2.539067
 C         0.977971        -0.894189         1.723650
 C         0.928403        -0.272869         0.260815
 C         2.428344        -0.427887         0.202614
 O         3.243462        -1.069708        -0.675014
 H         2.544025         1.847795        -1.429477
 H         0.752626         2.135633        -0.804931
 H         2.134285         3.096754        -0.155006
 H         3.494621         1.489756         1.883265
 H         1.890264         1.485304         2.489664
 H         4.023621        -0.818950         3.053654
 H         0.894073        -1.980777         1.707272
 H         0.226678        -0.486483         2.438244
 H         0.212126        -0.404164        -0.472750
 H         2.818113        -1.599449        -1.315311
