19
Iteration:  4540charge 0 multiplicity 1
 C         1.789317         2.153570        -0.455736
 C         1.933493         0.884257         0.347342
 C         2.173769         0.895096         1.825557
 C         2.453315        -0.562696         1.850454
 O         3.129848        -1.306716         2.769249
 C         0.984805        -0.970441         1.562449
 C         1.101576        -0.362751         0.159247
 C         2.666268        -0.458169         0.214349
 O         3.519325        -0.739674        -0.914752
 H         0.925217         2.798445        -0.264636
 H         2.643092         2.841416        -0.251064
 H         1.887815         2.152531        -1.531812
 H         3.127763         1.496848         2.169048
 H         1.368724         1.189715         2.554020
 H         3.886458        -0.775446         3.055268
 H         0.862988        -2.128798         1.515723
 H         0.182029        -0.515222         2.174813
 H         0.358132        -0.594438        -0.598378
 H         3.911437        -1.655760        -0.791211
