19
Iteration:  3813
 C         1.851039         2.251243        -0.445281
 C         1.803301         0.932082         0.309169
 C         2.141802         0.910085         1.829549
 C         2.424957        -0.569538         1.813857
 O         3.209338        -1.089489         2.839918
 C         0.961482        -1.059507         1.518014
 C         1.160901        -0.473433         0.129439
 C         2.627115        -0.425388         0.098784
 O         3.619379        -0.863389        -0.750475
 H         2.896974         2.512876        -0.536087
 H         1.422814         2.298091        -1.406461
 H         1.444555         3.033643         0.176519
 H         2.912322         1.632230         2.065347
 H         1.140876         1.173807         2.347265
 H         3.226600        -2.062755         2.744981
 H         1.007807        -2.128758         1.529792
 H         0.117722        -0.825527         2.218236
 H         0.533903        -0.467526        -0.713606
 H         3.172368        -1.682378        -1.143018
