19
Iteration:  1251
 C         1.960368         2.144037        -0.591231
 C         1.860137         0.914533         0.335334
 C         2.516578         0.992874         1.760905
 C         2.442876        -0.452814         1.774849
 O         3.241167        -1.230783         2.506195
 C         1.069060        -0.942270         1.794739
 C         0.860472        -0.402162         0.304931
 C         2.367591        -0.463265         0.205183
 O         3.362196        -0.897546        -0.680099
 H         1.083610         2.087977        -1.222400
 H         1.736774         2.991216         0.067386
 H         2.964232         2.011834        -1.051818
 H         3.552800         1.207898         1.686291
 H         1.785437         1.461657         2.571836
 H         4.210894        -0.972685         2.397685
 H         1.317632        -1.985754         1.667583
 H         0.222839        -0.779296         2.481539
 H        -0.007197        -0.571220        -0.470943
 H         3.317174        -1.868692        -0.610344
