19
Iteration:  3191
 C         1.847767         2.051979        -0.742950
 C         1.971202         0.961744         0.418416
 C         2.205241         0.985855         1.998929
 C         2.354715        -0.563399         1.842821
 O         3.416000        -1.305010         2.579297
 C         0.830355        -0.971021         1.563897
 C         1.054322        -0.275718         0.145119
 C         2.512497        -0.374640         0.251243
 O         3.555156        -0.755829        -0.603769
 H         2.697011         2.082341        -1.497794
 H         0.979644         1.598498        -1.230964
 H         1.656802         3.107819        -0.521884
 H         3.159764         1.498280         2.108592
 H         1.440221         1.200421         2.676226
 H         3.182119        -2.238829         2.405020
 H         0.741960        -2.088543         1.268781
 H         0.140086        -0.622112         2.253773
 H         0.331291        -0.572804        -0.565655
 H         3.603711        -1.737838        -0.473437
