19
Iteration:  2646
 C         1.847828         2.221354        -0.515072
 C         1.889015         0.897701         0.383812
 C         2.164442         0.979776         1.856813
 C         2.366641        -0.592623         1.746317
 O         3.233452        -1.157939         2.650970
 C         0.916565        -1.047507         1.586675
 C         1.053827        -0.434037         0.194731
 C         2.662232        -0.374484         0.200141
 O         3.627848        -0.919832        -0.664456
 H         2.843584         2.399055        -1.055434
 H         1.020063         2.408595        -1.254191
 H         1.766486         3.045871         0.227596
 H         3.050260         1.635139         1.982231
 H         1.383637         1.386971         2.492724
 H         3.415835        -2.109177         2.409886
 H         0.962802        -2.132269         1.546731
 H         0.130234        -0.709466         2.419273
 H         0.400168        -0.458569        -0.651126
 H         3.220388        -1.008543        -1.582733
