19
Iteration:  2678charge 0 multiplicity 1
 C         1.827501         2.165355        -0.507049
 C         1.940924         0.917232         0.378463
 C         2.250359         0.908367         1.929319
 C         2.407336        -0.590827         1.802899
 O         3.211888        -1.059881         2.860703
 C         0.990150        -1.118700         1.445488
 C         1.096634        -0.364088         0.113798
 C         2.619934        -0.383373         0.110576
 O         3.473747        -0.909114        -0.744935
 H         2.917604         2.487408        -0.905569
 H         1.025720         2.043720        -1.329356
 H         1.536655         3.067275         0.107985
 H         3.210091         1.458713         2.002187
 H         1.415483         1.249861         2.516748
 H         3.257524        -1.975323         3.136926
 H         1.220051        -2.165705         1.181545
 H         0.098128        -0.938517         2.189477
 H         0.320997        -0.165928        -0.590293
 H         3.211631        -0.945701        -1.682400
