19
Iteration:  3545charge 0 multiplicity 1
 C         1.790045         2.022624        -0.748675
 C         1.993807         1.005039         0.362447
 C         2.144209         1.133563         1.961134
 C         2.407391        -0.563523         1.797658
 O         3.279912        -1.400264         2.423433
 C         0.946199        -0.989882         1.622253
 C         1.073740        -0.312513         0.276946
 C         2.574408        -0.357063         0.284898
 O         3.471081        -0.971329        -0.523347
 H         2.638731         2.728572        -0.746142
 H         1.872799         1.562184        -1.744493
 H         0.853449         2.538989        -0.635497
 H         3.036865         1.752648         2.198059
 H         1.182524         1.573714         2.440332
 H         4.166839        -0.977417         2.494535
 H         0.839409        -2.070748         1.336274
 H         0.237935        -0.543620         2.285188
 H         0.416250        -0.385252        -0.632480
 H         4.351052        -0.490091        -0.319181
