19
Iteration:  5000charge 0 multiplicity 1
 C         2.068375         2.080665        -0.417152
 C         1.885574         0.909724         0.394062
 C         2.043914         1.031623         1.910655
 C         2.417133        -0.568966         1.800078
 O         3.175088        -1.339937         2.650180
 C         0.999317        -1.029344         1.504315
 C         1.090000        -0.417556         0.139621
 C         2.557399        -0.389453         0.208361
 O         3.495861        -0.703018        -0.737365
 H         2.140900         3.081315         0.115291
 H         2.975663         2.036779        -1.120702
 H         1.167447         2.107009        -1.101686
 H         3.025905         1.667913         2.048834
 H         1.219006         1.273912         2.529442
 H         4.054290        -0.959748         2.646460
 H         0.984253        -2.167894         1.473776
 H         0.238922        -0.757695         2.199940
 H         0.431475        -0.712549        -0.771840
 H         3.056650        -1.265034        -1.345740
