19
Iteration:  1119charge 0 multiplicity 1
 C         1.969755         1.947673        -0.631250
 C         1.857544         0.885881         0.430834
 C         2.449001         1.000348         1.826110
 C         2.449376        -0.540763         1.839767
 O         3.401543        -1.276474         2.621098
 C         0.863804        -0.823725         1.806633
 C         0.922493        -0.265950         0.328979
 C         2.481653        -0.554495         0.257737
 O         3.281961        -0.795428        -0.957206
 H         2.285494         1.473419        -1.622905
 H         0.938521         2.405479        -0.773070
 H         2.607127         2.842916        -0.309393
 H         3.392219         1.469500         1.816584
 H         1.894639         1.639385         2.618717
 H         4.245194        -1.291882         2.067750
 H         0.567093        -1.827178         1.796163
 H         0.283312        -0.202807         2.468216
 H         0.162727        -0.343678        -0.425392
 H         3.530236        -1.786247        -0.811307
