19
Iteration:  4460
 C         1.760991         2.066104        -0.714381
 C         1.919679         1.039093         0.483203
 C         2.063873         1.002614         2.031543
 C         2.339706        -0.545949         1.798310
 O         3.293140        -1.390518         2.457902
 C         0.970172        -1.055085         1.521276
 C         1.112689        -0.310330         0.152585
 C         2.609840        -0.300247         0.255001
 O         3.670839        -0.873055        -0.458318
 H         1.802172         3.042416        -0.344181
 H         2.562765         2.038018        -1.420537
 H         0.829650         1.988171        -1.271122
 H         2.854825         1.619941         2.496152
 H         1.094881         1.073539         2.641378
 H         4.150974        -1.366792         2.020912
 H         0.905687        -2.078121         1.254458
 H         0.038010        -0.722710         2.089734
 H         0.334615        -0.110278        -0.604148
 H         3.462824        -1.008841        -1.418395
