19
Iteration:  2594
 C         1.786236         2.053133        -0.621044
 C         1.925116         0.962796         0.456816
 C         2.262735         0.932108         1.894832
 C         2.325329        -0.502820         1.785493
 O         3.216537        -1.269108         2.500214
 C         0.952868        -1.060818         1.510588
 C         0.986432        -0.265317         0.268071
 C         2.598648        -0.350843         0.204429
 O         3.666686        -0.812763        -0.484307
 H         2.704997         2.142277        -1.032414
 H         1.288563         1.584232        -1.434844
 H         1.352858         3.019322        -0.462578
 H         3.295576         1.253538         2.159605
 H         1.444181         1.360220         2.560673
 H         3.726714        -1.570888         1.693551
 H         0.819480        -2.080301         1.314633
 H         0.155874        -0.784851         2.208886
 H         0.242585        -0.157032        -0.492104
 H         3.567549        -1.650602        -0.992381
