19
Iteration:  3626
 C         1.763452         2.151180        -0.574489
 C         1.891867         0.962226         0.407474
 C         2.300332         0.966039         1.870577
 C         2.421267        -0.517805         1.859008
 O         3.129362        -1.172607         2.925003
 C         1.012328        -0.987334         1.453411
 C         1.172508        -0.415148         0.119565
 C         2.622697        -0.461920         0.219066
 O         3.540440        -0.923816        -0.829283
 H         2.755332         2.662132        -0.941365
 H         1.181369         1.766078        -1.444151
 H         1.068267         2.977704        -0.198887
 H         3.233830         1.516979         2.155587
 H         1.529491         1.337425         2.611661
 H         3.797437        -1.772827         2.506317
 H         0.848861        -2.044088         1.486169
 H         0.084322        -0.678715         2.074795
 H         0.449384        -0.513472        -0.696063
 H         2.901884        -1.058244        -1.575215
