19
Iteration:   958charge 0 multiplicity 1
 C         1.839396         1.983480        -0.668532
 C         1.939135         0.963116         0.386322
 C         2.489540         1.049058         1.830346
 C         2.509099        -0.512937         1.846394
 O         3.317266        -1.337638         2.696365
 C         0.972190        -0.944994         1.685076
 C         0.989387        -0.247668         0.353864
 C         2.480222        -0.404517         0.171912
 O         3.221877        -0.926063        -0.908378
 H         1.768758         1.511847        -1.610209
 H         0.993809         2.605706        -0.443837
 H         2.722097         2.641999        -0.660081
 H         3.536779         1.532418         2.066325
 H         1.769103         1.587222         2.555063
 H         4.100112        -0.732416         2.761430
 H         0.793238        -2.071504         1.654137
 H         0.429086        -0.435396         2.524041
 H         0.150745        -0.131460        -0.239840
 H         3.249108        -1.904001        -0.731640
