19
Iteration:  4436
 C         1.712725         2.110250        -0.539021
 C         1.884530         0.922448         0.416648
 C         2.194402         1.021249         1.871111
 C         2.315758        -0.552042         1.779332
 O         3.202352        -1.387610         2.547410
 C         0.880489        -1.003225         1.517072
 C         1.116079        -0.430605         0.156923
 C         2.681793        -0.326029         0.275467
 O         3.722940        -0.772407        -0.507700
 H         1.923627         3.103679        -0.178851
 H         2.295330         2.032507        -1.401908
 H         0.705090         2.104540        -0.921815
 H         3.134214         1.493545         2.021175
 H         1.418149         1.411154         2.586710
 H         4.076471        -1.477299         2.138126
 H         0.819562        -2.044154         1.456588
 H         0.035656        -0.514602         2.094302
 H         0.650995        -0.592011        -0.898593
 H         3.486233        -0.848882        -1.492540
