19
Iteration:  1882charge 0 multiplicity 1
 C         1.991517         2.115167        -0.713957
 C         2.067856         1.033651         0.394499
 C         2.413983         0.962922         1.925377
 C         2.431418        -0.583006         1.811699
 O         3.352418        -1.337721         2.606006
 C         0.957296        -1.019701         1.686040
 C         0.871612        -0.235169         0.375297
 C         2.460939        -0.447900         0.211955
 O         3.210465        -0.883783        -0.824136
 H         2.539944         1.714644        -1.605712
 H         0.927201         2.178186        -1.012177
 H         2.609019         3.047121        -0.417260
 H         3.415948         1.322500         1.954594
 H         1.983952         1.359892         2.825680
 H         4.077972        -0.740373         2.732486
 H         0.939157        -2.064239         1.628182
 H         0.214000        -0.597538         2.380651
 H        -0.038178        -0.110562        -0.133167
 H         2.757140        -1.465120        -1.399936
