19
Iteration:  1891charge 0 multiplicity 1
 C         1.987618         2.115840        -0.711682
 C         2.002858         1.017107         0.414802
 C         2.457563         0.914366         1.927308
 C         2.427961        -0.592819         1.857578
 O         3.398039        -1.329390         2.635789
 C         0.903508        -0.964677         1.739952
 C         0.945314        -0.222403         0.348491
 C         2.439078        -0.417303         0.166658
 O         3.224645        -0.919244        -0.895606
 H         2.485396         1.694337        -1.642708
 H         0.982296         2.601031        -0.982694
 H         2.538805         3.070819        -0.337047
 H         3.386344         1.358251         2.088142
 H         1.643371         1.289967         2.598486
 H         4.002160        -0.677656         2.967275
 H         0.825075        -2.090479         1.607026
 H         0.124735        -0.716488         2.506939
 H         0.149832        -0.222173        -0.394638
 H         2.704964        -1.520168        -1.417707
