19
Iteration:  4923
 C         1.684585         2.093251        -0.457844
 C         1.947153         0.990712         0.416618
 C         2.260225         0.965462         1.887993
 C         2.420062        -0.525243         1.841858
 O         3.106095        -1.458390         2.605312
 C         0.926081        -0.893060         1.533216
 C         1.179212        -0.354783         0.181309
 C         2.665174        -0.318703         0.217634
 O         3.546050        -0.891210        -0.868096
 H         0.636910         2.490097        -0.673177
 H         2.390599         2.913671        -0.103869
 H         2.023848         1.603199        -1.401097
 H         3.305581         1.534530         2.140557
 H         1.399951         1.329575         2.386210
 H         3.678669        -1.050518         3.275963
 H         0.754304        -1.975383         1.747505
 H         0.279153        -0.329054         2.142985
 H         0.490966        -0.299328        -0.686652
 H         4.385410        -1.107984        -0.330633
