19
Iteration:  3160
 C         1.986312         2.042537        -0.599879
 C         1.817344         0.955171         0.334935
 C         2.196628         1.030516         1.867199
 C         2.345541        -0.452135         1.801985
 O         3.301362        -1.284679         2.346190
 C         0.975989        -1.041200         1.631718
 C         0.929899        -0.378701         0.268032
 C         2.544513        -0.369222         0.219054
 O         3.636631        -0.792358        -0.473608
 H         2.996285         1.981565        -1.048884
 H         1.187709         2.014439        -1.373763
 H         1.758117         3.065094        -0.263705
 H         3.154996         1.560615         1.878749
 H         1.527807         1.459834         2.640796
 H         2.787465        -1.861330         2.951391
 H         1.125621        -2.154802         1.350645
 H         0.197804        -0.902000         2.422587
 H         0.082963        -0.633180        -0.374620
 H         3.400442        -1.714185        -0.669428
