19
Iteration:  3569
 C         1.782439         2.104375        -0.632694
 C         1.752205         0.968286         0.343089
 C         2.354088         1.038179         1.868074
 C         2.390117        -0.458506         1.832518
 O         3.270132        -1.347860         2.507885
 C         0.884502        -0.999726         1.596755
 C         1.012222        -0.400623         0.136857
 C         2.542958        -0.364860         0.228981
 O         3.601819        -1.006065        -0.441410
 H         2.812458         2.638061        -0.629713
 H         1.571064         1.874715        -1.706610
 H         0.987075         2.768269        -0.223844
 H         3.334528         1.556762         1.690935
 H         1.749604         1.571715         2.678339
 H         4.174186        -1.058563         2.373941
 H         0.845184        -2.080828         1.585884
 H         0.091303        -0.420300         2.185904
 H         0.542193        -0.523053        -0.784944
 H         4.085719        -0.309111        -0.952854
