19
Iteration:  4603
 C         1.790522         2.068340        -0.648849
 C         1.884112         0.972381         0.402742
 C         2.323445         1.011748         1.886875
 C         2.380187        -0.634456         1.790556
 O         3.152404        -1.382308         2.729935
 C         0.965192        -1.093687         1.555542
 C         1.006484        -0.314031         0.219104
 C         2.570483        -0.349838         0.205954
 O         3.622768        -0.693036        -0.740850
 H         0.786899         2.108976        -0.971797
 H         2.034435         2.962713        -0.065534
 H         2.549157         1.862885        -1.432126
 H         3.372261         1.318482         1.973027
 H         1.844252         1.547709         2.709851
 H         4.015188        -1.014138         2.923820
 H         0.809697        -2.146999         1.411578
 H         0.214617        -0.641360         2.257975
 H         0.289171        -0.137142        -0.591748
 H         3.408059        -1.564479        -1.226478
