19
Iteration:  2048charge 0 multiplicity 1
 C         1.983709         2.005889        -0.599094
 C         1.891377         0.961340         0.440016
 C         2.466884         0.971818         1.901018
 C         2.382214        -0.538329         1.795571
 O         3.290633        -1.297439         2.478981
 C         0.939385        -0.969734         1.665679
 C         0.887177        -0.197574         0.386127
 C         2.435408        -0.425422         0.181684
 O         3.368724        -0.877561        -0.752781
 H         1.296814         2.878519        -0.458559
 H         2.928482         2.666919        -0.605946
 H         1.793409         1.545577        -1.664900
 H         3.537618         1.213494         1.915596
 H         2.004018         1.561935         2.685195
 H         4.143837        -0.902016         2.229939
 H         0.933980        -2.024609         1.421554
 H         0.189607        -0.676876         2.471604
 H         0.131230        -0.272281        -0.447186
 H         3.419884        -1.870135        -0.664640
