19
Iteration:  1461charge 0 multiplicity 1
 C         1.917195         1.959750        -0.715193
 C         1.910704         0.920697         0.380005
 C         2.478827         0.975022         1.841096
 C         2.436497        -0.553675         1.821328
 O         3.371075        -1.400363         2.494253
 C         0.948101        -0.833639         1.838296
 C         0.935601        -0.223896         0.398027
 C         2.389599        -0.501720         0.168095
 O         3.309464        -0.772163        -0.716523
 H         1.946859         2.984367        -0.266748
 H         2.776389         1.822822        -1.425686
 H         0.907178         2.027923        -1.181012
 H         3.514970         1.259373         1.686004
 H         2.035334         1.643433         2.665799
 H         4.260196        -1.273554         2.067018
 H         0.637655        -1.961773         1.874293
 H         0.505965        -0.106197         2.736238
 H         0.023191        -0.080727        -0.281157
 H         3.073015        -1.454514        -1.341187
