19
Iteration:  4415
 C         1.690230         2.180484        -0.490509
 C         1.870567         0.900114         0.339156
 C         2.344200         0.976195         1.860808
 C         2.398556        -0.540427         1.752825
 O         3.107152        -1.323293         2.750453
 C         0.965224        -1.114633         1.426371
 C         1.016830        -0.483354         0.077786
 C         2.549501        -0.407433         0.130148
 O         3.724868        -0.687610        -0.492863
 H         2.270341         2.921709        -0.022323
 H         2.098796         2.241060        -1.465653
 H         0.694081         2.570321        -0.634327
 H         3.353634         1.402895         1.875544
 H         1.771150         1.558254         2.709208
 H         4.051694        -1.421703         2.537957
 H         1.006369        -2.157645         1.521304
 H         0.279699        -0.610322         2.236023
 H         0.333459        -0.398684        -0.891166
 H         3.578795        -1.050551        -1.382471
