19
Iteration:  2452
 C         1.849299         2.129553        -0.630398
 C         1.895910         0.948455         0.322598
 C         2.325673         1.057168         1.835624
 C         2.423954        -0.587998         1.810016
 O         3.148050        -1.416932         2.776458
 C         0.957696        -1.001630         1.624244
 C         1.064179        -0.319672         0.338458
 C         2.615328        -0.438354         0.194563
 O         3.503623        -0.757450        -0.849036
 H         1.331506         2.966026        -0.196114
 H         2.861853         2.390689        -0.970601
 H         1.208809         1.907742        -1.527352
 H         3.265300         1.472060         2.147129
 H         1.482217         1.330618         2.442619
 H         4.020624        -0.967439         2.956600
 H         0.845390        -2.039985         1.436233
 H         0.272187        -0.700386         2.361103
 H         0.269411        -0.407389        -0.458990
 H         3.205168        -1.597327        -1.214448
