19
Iteration:  1827charge 0 multiplicity 1
 C         1.868427         2.087851        -0.593658
 C         2.059552         0.950493         0.343252
 C         2.525262         1.002406         1.782014
 C         2.426526        -0.626209         1.758286
 O         3.293772        -1.425539         2.511043
 C         0.897911        -0.805665         1.854288
 C         0.962819        -0.328830         0.314072
 C         2.371918        -0.426247         0.172062
 O         3.332077        -0.829169        -0.712450
 H         2.733204         2.195479        -1.266704
 H         0.943692         2.179477        -1.190042
 H         1.788924         3.059066        -0.008235
 H         3.530877         1.409049         2.038096
 H         1.766171         1.399597         2.513494
 H         4.101402        -1.505106         1.968191
 H         0.607441        -1.752228         2.195396
 H         0.423730        -0.028464         2.436718
 H         0.178529        -0.355187        -0.446685
 H         3.332270        -1.761782        -0.830302
