19
Iteration:  1513charge 0 multiplicity 1
 C         1.923053         2.082904        -0.656907
 C         1.901053         0.939815         0.384614
 C         2.621168         1.022980         1.815852
 C         2.524362        -0.573475         1.772331
 O         3.255371        -1.409816         2.569745
 C         1.033941        -0.890509         1.801818
 C         0.902129        -0.187293         0.458032
 C         2.405360        -0.480441         0.176509
 O         3.164640        -0.853227        -0.868031
 H         1.005641         2.746035        -0.636797
 H         2.835611         2.681526        -0.452199
 H         1.982376         1.421501        -1.559293
 H         3.544448         1.586109         1.637030
 H         1.873699         1.560161         2.471180
 H         4.090327        -0.980781         2.820655
 H         0.900716        -1.936458         1.605023
 H         0.486086        -0.668546         2.640612
 H         0.078919        -0.359994        -0.221484
 H         3.508622        -1.794503        -0.809954
