19
Iteration:   529
 C         1.746222         2.052680        -0.686421
 C         1.810916         0.863810         0.320499
 C         2.383018         0.992500         1.926017
 C         2.385108        -0.497317         1.793742
 O         3.250102        -1.227983         2.585414
 C         0.994223        -1.073107         1.650573
 C         0.984780        -0.422100         0.166725
 C         2.491386        -0.449600         0.198532
 O         3.606142        -0.816600        -0.553003
 H         0.706320         2.304447        -0.783100
 H         2.408914         2.854137        -0.306792
 H         2.084498         1.728405        -1.695898
 H         3.424746         1.234940         1.936545
 H         1.766485         1.537671         2.767804
 H         3.970531        -0.578978         2.637666
 H         0.756879        -2.094402         1.761521
 H         0.373731        -0.364697         2.140970
 H         0.128306        -0.462469        -0.664436
 H         3.903272        -0.043831        -0.989906
