19
Iteration:   938
 C         1.922424         1.921930        -0.655249
 C         1.984347         0.907511         0.403406
 C         2.390895         0.986616         1.869827
 C         2.444685        -0.543883         1.754402
 O         3.374042        -1.258965         2.518933
 C         0.925123        -0.841439         1.810202
 C         0.951269        -0.249856         0.354268
 C         2.420072        -0.511639         0.217587
 O         3.300680        -0.824862        -0.807818
 H         1.534606         1.507915        -1.587060
 H         1.436934         2.857621        -0.388389
 H         2.883414         2.295327        -1.095323
 H         3.384614         1.390625         1.987694
 H         1.641487         1.465182         2.607557
 H         4.039865        -0.705630         2.905754
 H         0.831106        -1.971438         1.721111
 H         0.448050        -0.459322         2.713389
 H         0.208761        -0.405226        -0.350599
 H         3.098646        -1.648410        -1.194724
