19
Iteration:  4690
 C         1.832350         2.052848        -0.568841
 C         1.998354         1.058167         0.454447
 C         2.220626         0.907657         1.891599
 C         2.344274        -0.601149         1.758835
 O         3.258027        -1.148260         2.666910
 C         0.968505        -1.156538         1.402339
 C         1.093627        -0.247006         0.236200
 C         2.589195        -0.308472         0.225105
 O         3.496712        -0.879635        -0.591716
 H         0.826421         2.487671        -0.593805
 H         2.475633         2.960940        -0.467679
 H         1.945086         1.737559        -1.655595
 H         3.136354         1.289912         2.320642
 H         1.405875         1.169703         2.528202
 H         3.845600        -1.701622         2.136647
 H         1.085015        -2.175720         1.105240
 H         0.102645        -1.056093         2.063234
 H         0.363607        -0.129981        -0.659131
 H         2.954405        -1.575711        -1.010163
