19
Iteration:  1473charge 0 multiplicity 1
 C         1.926980         2.003538        -0.727904
 C         1.897693         0.973573         0.442843
 C         2.580778         0.947540         1.796784
 C         2.454297        -0.582593         1.783255
 O         3.347091        -1.371628         2.483037
 C         0.902708        -0.782048         1.861104
 C         0.890748        -0.333551         0.414319
 C         2.355849        -0.536939         0.271901
 O         3.322252        -0.709265        -0.789617
 H         1.881567         3.042644        -0.345817
 H         2.872085         1.914741        -1.308674
 H         1.180350         1.793910        -1.495609
 H         3.653659         1.219916         1.879603
 H         2.054427         1.365986         2.683714
 H         4.211908        -1.234489         2.030766
 H         0.642465        -1.905511         2.054434
 H         0.185298        -0.116580         2.603917
 H         0.061783        -0.441752        -0.412690
 H         3.203964        -1.600469        -1.136270
