19
Iteration:  1028
 C         1.698320         2.202984        -0.570860
 C         1.975198         0.932584         0.351151
 C         2.532279         0.959620         1.789874
 C         2.455890        -0.606487         1.800014
 O         3.317278        -1.211282         2.602600
 C         0.919675        -0.763527         1.788339
 C         1.029753        -0.301065         0.315625
 C         2.566181        -0.514061         0.155682
 O         3.331920        -1.137159        -0.837800
 H         2.410803         2.127834        -1.455087
 H         0.600629         2.358551        -0.663140
 H         2.054686         2.893169         0.167091
 H         3.513042         1.286210         2.043767
 H         1.954432         1.517340         2.661375
 H         4.005245        -0.588086         2.883748
 H         0.611585        -1.809481         1.727491
 H         0.245079        -0.184752         2.414410
 H         0.089455        -0.348959        -0.374874
 H         2.777547        -1.594333        -1.452582
