19
Iteration:  4496
 C         1.926610         2.193026        -0.559067
 C         1.784928         0.932232         0.372751
 C         2.204520         1.012394         1.942848
 C         2.318016        -0.599188         1.800432
 O         3.243408        -1.184309         2.572355
 C         0.960432        -1.224585         1.456380
 C         1.038561        -0.359298         0.184598
 C         2.530666        -0.375590         0.236420
 O         3.608446        -0.830302        -0.525084
 H         1.622728         3.069806         0.028763
 H         2.995254         2.337433        -0.920731
 H         1.270509         2.255555        -1.440003
 H         3.343528         1.279673         2.016250
 H         1.693394         1.556410         2.798457
 H         3.962870        -0.951876         1.977985
 H         1.266977        -2.295513         1.135480
 H         0.159291        -1.289302         2.208462
 H         0.473405        -0.349276        -0.691515
 H         3.185762        -1.309561        -1.315570
