19
Iteration:  4761charge 0 multiplicity 1
 C         1.719638         2.130736        -0.479434
 C         1.878315         0.900531         0.336536
 C         2.435112         0.896235         1.814775
 C         2.357690        -0.555253         1.829296
 O         3.178340        -1.162669         2.842031
 C         0.956160        -1.111289         1.430009
 C         0.988435        -0.355998         0.140748
 C         2.579748        -0.476038         0.094593
 O         3.649452        -0.682044        -0.725634
 H         1.267360         2.994069         0.082922
 H         2.601461         2.617145        -0.890724
 H         0.991801         2.073398        -1.285570
 H         3.566671         1.067091         1.813406
 H         1.939905         1.527493         2.658767
 H         2.809106        -1.940103         3.259870
 H         1.070646        -2.273724         1.212406
 H         0.030582        -0.951637         2.049141
 H         0.119631        -0.209461        -0.395049
 H         4.154813        -1.509527        -0.613233
