19
Iteration:  1010
 C         1.713841         2.130045        -0.430543
 C         2.027249         0.919849         0.319541
 C         2.524834         1.055021         1.746115
 C         2.538712        -0.499769         1.817749
 O         3.249248        -1.247095         2.753109
 C         0.987543        -0.854362         1.706268
 C         0.994821        -0.258515         0.301686
 C         2.434074        -0.545023         0.101687
 O         3.327798        -1.114105        -0.895063
 H         2.291545         2.161641        -1.386357
 H         0.608833         2.269595        -0.514104
 H         2.044497         3.129419        -0.016515
 H         3.567309         1.456921         1.585885
 H         1.978932         1.622151         2.428488
 H         4.110192        -0.824273         2.656867
 H         0.843138        -1.921446         1.733912
 H         0.293606        -0.404858         2.461702
 H         0.275029        -0.189924        -0.464047
 H         2.873038        -1.882469        -1.211541
