19
Iteration:  1647charge 0 multiplicity 1
 C         1.826963         2.010184        -0.683707
 C         2.063428         0.997565         0.393793
 C         2.565932         0.972011         1.953988
 C         2.434249        -0.551535         1.862664
 O         3.367456        -1.465501         2.438372
 C         0.899624        -0.791193         1.858319
 C         0.918213        -0.182141         0.326462
 C         2.431540        -0.422015         0.194410
 O         3.229221        -0.916075        -0.864899
 H         0.776703         2.513739        -0.647842
 H         2.693329         2.784835        -0.776791
 H         1.796736         1.553005        -1.715753
 H         3.607310         1.241500         2.099443
 H         2.009667         1.428119         2.918350
 H         4.221592        -0.926191         2.457083
 H         0.529804        -1.840545         1.787310
 H         0.363472        -0.195149         2.578328
 H         0.084895         0.016674        -0.372020
 H         3.457688        -1.856185        -0.628995
