19
Iteration:   253
 C         1.801770         2.117963        -0.744519
 C         1.824378         1.000036         0.327699
 C         2.264867         1.001298         1.859640
 C         2.434385        -0.514059         1.804043
 O         3.317948        -1.227116         2.637051
 C         1.044221        -1.121709         1.580997
 C         1.079054        -0.379914         0.260728
 C         2.562919        -0.361404         0.294221
 O         3.442573        -0.943295        -0.597758
 H         0.887197         2.242764        -1.351189
 H         2.007765         3.035922        -0.140459
 H         2.558761         2.044270        -1.452429
 H         3.215231         1.384440         2.053045
 H         1.628167         1.361460         2.668363
 H         3.613969        -0.542528         3.304420
 H         1.146141        -2.101981         1.230497
 H         0.106140        -1.173814         2.288595
 H         0.412905        -0.507849        -0.694268
 H         2.893645        -0.911188        -1.368034
