19
Iteration:  2942
 C         1.829645         2.103514        -0.648327
 C         1.969919         1.039902         0.350915
 C         2.242367         0.979119         1.866007
 C         2.376571        -0.686939         1.768561
 O         3.347618        -1.315364         2.534959
 C         0.838156        -1.063388         1.555338
 C         1.070407        -0.272688         0.224517
 C         2.606352        -0.398466         0.311778
 O         3.482965        -0.874984        -0.607578
 H         2.692872         2.348809        -1.281094
 H         1.127759         1.739988        -1.440818
 H         1.498524         3.093824        -0.231590
 H         3.124725         1.557650         2.222637
 H         1.306276         1.379579         2.399793
 H         3.093802        -1.199133         3.449135
 H         0.631421        -2.125982         1.459811
 H         0.087193        -0.696270         2.305054
 H         0.407751        -0.069857        -0.603471
 H         4.319072        -0.390210        -0.512404
