19
Iteration:  2325charge 0 multiplicity 1
 C         1.790942         2.200715        -0.532775
 C         2.041665         0.960630         0.392303
 C         2.470225         0.874996         1.836276
 C         2.357969        -0.617021         1.794811
 O         3.231250        -1.224002         2.834684
 C         0.955855        -1.002779         1.611473
 C         1.026024        -0.299963         0.113636
 C         2.455990        -0.474933         0.174622
 O         3.420694        -0.862167        -0.815043
 H         0.893848         2.018239        -1.131220
 H         1.599202         3.167494        -0.069558
 H         2.628978         2.430028        -1.202662
 H         3.633987         1.071739         1.863618
 H         1.888089         1.449490         2.649715
 H         3.948255        -0.592742         2.885433
 H         0.968111        -2.136805         1.465421
 H         0.235337        -0.771706         2.424243
 H         0.284662        -0.376666        -0.702199
 H         3.075335        -1.566415        -1.422115
