19
Iteration:  2838charge 0 multiplicity 1
 C         1.859598         2.080571        -0.512983
 C         2.030017         0.911728         0.428749
 C         2.206519         0.960419         1.953208
 C         2.380346        -0.546856         1.846106
 O         3.271753        -1.141579         2.693941
 C         0.913711        -0.977971         1.444908
 C         1.108900        -0.345872         0.135395
 C         2.622778        -0.419384         0.292829
 O         3.364665        -0.934001        -0.792615
 H         2.556440         2.865387        -0.364436
 H         1.911635         1.740506        -1.527694
 H         0.874758         2.482409        -0.406856
 H         3.158505         1.488054         2.086373
 H         1.455832         1.227711         2.698926
 H         3.475323        -2.026457         2.334795
 H         0.784828        -2.057047         1.172808
 H         0.199791        -0.546573         2.134797
 H         0.545811        -0.416204        -0.757714
 H         4.162884        -0.483337        -1.090058
