19
Iteration:  3619charge 0 multiplicity 1
 C         1.739441         2.170685        -0.572661
 C         1.918610         0.945060         0.347592
 C         2.310910         1.026949         1.816220
 C         2.383365        -0.560737         1.836843
 O         3.155765        -1.184130         2.933462
 C         0.921194        -1.014879         1.503904
 C         1.114264        -0.376277         0.170160
 C         2.672458        -0.491217         0.173883
 O         3.580113        -0.907681        -0.793870
 H         2.699358         2.548085        -0.853864
 H         1.210080         1.991839        -1.532600
 H         1.129451         2.885649        -0.002150
 H         3.256706         1.399831         2.155960
 H         1.658670         1.325834         2.597633
 H         3.900465        -1.714532         2.604557
 H         0.749221        -2.139093         1.304260
 H         0.207597        -0.646545         2.191302
 H         0.308901        -0.647003        -0.613828
 H         3.160942        -0.912277        -1.631343
