19
Iteration:  4811charge 0 multiplicity 1
 C         1.945165         2.032434        -0.581104
 C         1.901862         0.973083         0.429934
 C         2.060614         1.035873         1.942587
 C         2.356972        -0.490104         1.902128
 O         3.289859        -1.319302         2.607855
 C         0.970044        -1.062425         1.574590
 C         1.126248        -0.373541         0.205185
 C         2.593867        -0.353313         0.193383
 O         3.461563        -0.817227        -0.793883
 H         1.225920         2.827726        -0.404295
 H         2.882528         2.626594        -0.536682
 H         1.767822         1.683803        -1.627411
 H         2.806101         1.779259         2.275822
 H         1.157804         1.248468         2.474989
 H         3.336224        -2.212014         2.175441
 H         1.097767        -2.094538         1.439014
 H         0.164902        -0.887785         2.292733
 H         0.551656        -0.534867        -0.741716
 H         4.300731        -0.378879        -0.615658
