19
Iteration:   505charge 0 multiplicity 1
 C         1.670714         1.947808        -0.677832
 C         1.895743         0.945592         0.362429
 C         2.289793         1.046087         1.774379
 C         2.424478        -0.535411         1.800115
 O         3.191043        -1.343450         2.716632
 C         0.991369        -1.028790         1.653094
 C         1.077200        -0.322118         0.252155
 C         2.567690        -0.343049         0.204094
 O         3.616320        -0.810849        -0.612956
 H         0.705863         2.528778        -0.496392
 H         2.616907         2.605261        -0.857977
 H         1.463146         1.377537        -1.592923
 H         3.310672         1.444429         1.988056
 H         1.402778         1.480803         2.422963
 H         4.063973        -1.164593         2.350919
 H         0.936493        -1.967085         1.281889
 H         0.208918        -0.774703         2.289257
 H         0.230218        -0.529899        -0.504426
 H         3.914775        -0.042361        -1.193516
