19
Iteration:  4416
 C         1.688081         2.174293        -0.489543
 C         1.872175         0.908513         0.335601
 C         2.337833         0.973239         1.859405
 C         2.403927        -0.538123         1.766043
 O         3.110908        -1.329168         2.743021
 C         0.961306        -1.109011         1.423627
 C         1.032635        -0.486444         0.073843
 C         2.542210        -0.407976         0.132669
 O         3.724620        -0.688277        -0.487066
 H         2.254490         2.905503        -0.005832
 H         2.131754         2.238612        -1.489939
 H         0.679278         2.565673        -0.659819
 H         3.360120         1.427244         1.893023
 H         1.761850         1.572473         2.710875
 H         4.041393        -1.413279         2.489583
 H         0.993699        -2.160450         1.545376
 H         0.260061        -0.593230         2.237289
 H         0.315799        -0.380620        -0.857139
 H         3.547446        -1.044988        -1.413653
