19
Iteration:  2668charge 0 multiplicity 1
 C         1.855144         2.118472        -0.441949
 C         1.903993         0.953807         0.459178
 C         2.189935         0.936493         1.876115
 C         2.408152        -0.544408         1.807703
 O         3.231051        -1.050359         2.833020
 C         1.019166        -1.067726         1.450219
 C         1.055059        -0.323489         0.150433
 C         2.524277        -0.435046         0.074279
 O         3.614914        -0.971012        -0.794670
 H         2.835150         2.342757        -1.042020
 H         1.040601         2.070207        -1.232268
 H         1.584163         2.998644         0.197346
 H         3.071508         1.521517         2.204941
 H         1.439588         1.177337         2.615772
 H         3.034514        -1.980041         2.729749
 H         1.081624        -2.153583         1.262045
 H         0.101604        -0.952901         2.200566
 H         0.340653        -0.365894        -0.637695
 H         3.249977        -0.951749        -1.663516
