19
Iteration:  4468charge 0 multiplicity 1
 C         1.813903         2.099088        -0.646223
 C         1.925503         1.031554         0.452502
 C         2.086411         0.978595         1.981498
 C         2.413297        -0.562941         1.774248
 O         3.311359        -1.379276         2.505473
 C         0.951503        -1.077285         1.409040
 C         1.067899        -0.330452         0.209105
 C         2.548612        -0.264575         0.220597
 O         3.606202        -0.857183        -0.397347
 H         1.765531         3.233310        -0.583333
 H         2.580273         1.956785        -1.399198
 H         0.967026         1.814836        -1.292567
 H         2.805380         1.521911         2.492043
 H         1.198609         1.222503         2.530422
 H         4.086299        -1.178700         1.950980
 H         1.198666        -2.125195         1.328116
 H         0.160953        -0.935422         2.142300
 H         0.278290        -0.120347        -0.627588
 H         3.372606        -1.080016        -1.309240
