19
Iteration:  4843charge 0 multiplicity 1
 C         1.955542         2.161981        -0.549421
 C         1.853931         0.974930         0.367414
 C         2.183734         0.903571         1.904276
 C         2.365250        -0.590704         1.780813
 O         3.322636        -1.239725         2.614730
 C         0.914616        -1.058861         1.556284
 C         1.056393        -0.369514         0.162307
 C         2.481990        -0.377892         0.202622
 O         3.529942        -0.867043        -0.568615
 H         0.971944         2.589398        -0.663234
 H         2.609361         2.905741        -0.079264
 H         2.464962         1.932735        -1.508427
 H         3.031295         1.568050         2.095393
 H         1.429326         1.270043         2.646332
 H         3.988086        -1.545336         1.966285
 H         0.973348        -2.101848         1.385229
 H         0.106517        -0.770632         2.284025
 H         0.380803        -0.436276        -0.716121
 H         3.437902        -0.414493        -1.474312
