19
Iteration:  4354
 C         1.818773         2.159707        -0.522865
 C         1.986821         0.936179         0.440718
 C         2.016462         0.912283         1.934568
 C         2.365468        -0.556630         1.866269
 O         3.176164        -1.300235         2.725696
 C         0.991791        -1.093247         1.408292
 C         1.270968        -0.454194         0.105434
 C         2.736699        -0.321508         0.265389
 O         3.443615        -0.680421        -0.848913
 H         2.891617         2.258217        -0.914281
 H         1.142802         1.694553        -1.342827
 H         1.452390         3.118740        -0.045049
 H         2.833819         1.539244         2.365520
 H         1.115098         1.117247         2.405795
 H         3.237724        -0.824822         3.566196
 H         0.922344        -2.233190         1.364421
 H         0.166752        -0.814321         2.005530
 H         0.900004        -0.586471        -0.900392
 H         3.951477        -1.547691        -0.757093
