19
Iteration:  3932charge 0 multiplicity 1
 C         1.841981         2.078497        -0.698640
 C         1.762127         0.948443         0.392329
 C         2.318356         0.985502         1.863930
 C         2.340110        -0.606199         1.771874
 O         3.185738        -1.367848         2.674693
 C         0.941322        -1.025361         1.513170
 C         1.045052        -0.428141         0.140184
 C         2.547368        -0.463367         0.213359
 O         3.666356        -0.559007        -0.480460
 H         2.331167         3.031918        -0.365462
 H         2.167107         1.645840        -1.639036
 H         0.752069         2.416307        -0.741673
 H         3.367451         1.285902         1.850673
 H         1.778260         1.506761         2.729074
 H         4.041116        -1.380016         2.202527
 H         0.810238        -2.055518         1.402127
 H         0.103975        -0.597268         2.236033
 H         0.342378        -0.445415        -0.649235
 H         3.887883        -1.430239        -0.722309
