19
Iteration:  3332charge 0 multiplicity 1
 C         1.906726         2.088769        -0.648132
 C         1.821101         0.968861         0.452971
 C         2.342443         1.007537         1.835929
 C         2.405979        -0.554615         1.773845
 O         3.244427        -1.295378         2.565774
 C         0.905214        -1.001689         1.560588
 C         0.981333        -0.344351         0.214868
 C         2.446815        -0.469733         0.236657
 O         3.593339        -0.768673        -0.511583
 H         2.412432         3.034583        -0.288297
 H         2.395034         1.588748        -1.522069
 H         1.009328         2.621473        -1.043819
 H         3.384016         1.461620         1.761887
 H         1.738297         1.594037         2.611680
 H         3.703222        -1.901005         1.957062
 H         0.966900        -2.146336         1.648652
 H         0.273646        -0.438437         2.314257
 H         0.228944        -0.464658        -0.613364
 H         3.538834        -1.641611        -1.047231
