19
Iteration:   929
 C         1.970403         1.990658        -0.745073
 C         1.864988         0.943894         0.391576
 C         2.426590         1.017394         1.894745
 C         2.428799        -0.540643         1.830411
 O         3.395000        -1.277146         2.476911
 C         0.926961        -0.889276         1.811453
 C         0.946975        -0.289348         0.370052
 C         2.399286        -0.559546         0.227978
 O         3.351756        -0.828662        -0.792691
 H         1.215455         1.631008        -1.551435
 H         1.514845         2.943102        -0.350962
 H         3.069384         2.027675        -0.929235
 H         3.376208         1.293173         2.098097
 H         1.813481         1.562182         2.638656
 H         3.901045        -0.536370         2.759704
 H         0.638483        -1.954303         1.764449
 H         0.483014        -0.381475         2.649261
 H         0.134892        -0.400337        -0.345065
 H         3.108735        -1.555480        -1.305294
