19
Iteration:  4116charge 0 multiplicity 1
 C         1.827766         1.967631        -0.763288
 C         1.800336         0.978316         0.459352
 C         2.248887         1.020529         1.976618
 C         2.381181        -0.575321         1.811385
 O         3.295536        -1.362945         2.570363
 C         0.946820        -1.112320         1.447870
 C         0.946570        -0.313651         0.145282
 C         2.574167        -0.366074         0.259797
 O         3.724192        -0.569893        -0.452966
 H         2.233893         2.976183        -0.470683
 H         2.316339         1.684123        -1.668350
 H         0.854747         2.325536        -1.066237
 H         3.290766         1.399167         2.074583
 H         1.498305         1.514287         2.611371
 H         2.796123        -2.186499         2.639211
 H         0.992271        -2.180715         1.199440
 H         0.052896        -0.996072         2.101863
 H         0.100108        -0.293167        -0.667072
 H         3.626388        -1.477234        -0.909692
