19
Iteration:  1589
 C         1.839660         2.400160        -0.465321
 C         1.985685         1.028319         0.326825
 C         2.578981         1.072456         1.698015
 C         2.558232        -0.542930         1.753499
 O         3.273807        -1.277675         2.618711
 C         1.013809        -0.945916         1.731277
 C         0.974655        -0.313879         0.431271
 C         2.384216        -0.506496         0.126628
 O         3.195200        -1.210372        -0.809477
 H         0.737314         2.592558        -0.574258
 H         2.341842         3.171384         0.171862
 H         2.484387         2.101484        -1.362989
 H         3.663643         1.396448         1.961151
 H         2.006215         1.294454         2.644488
 H         4.203596        -1.373774         2.421383
 H         0.711761        -1.980452         1.588738
 H         0.275575        -0.551586         2.540416
 H         0.074285        -0.465994        -0.291551
 H         2.742060        -1.667397        -1.523110
