19
Iteration:  3281charge 0 multiplicity 1
 C         1.889680         2.046405        -0.469832
 C         2.021555         0.916259         0.385620
 C         2.264862         0.970118         1.964253
 C         2.403204        -0.566663         1.903196
 O         3.174016        -1.049695         2.869592
 C         1.004251        -1.067054         1.475683
 C         1.185156        -0.378647         0.106434
 C         2.685587        -0.411650         0.122380
 O         3.311224        -0.835448        -0.973929
 H         2.485804         2.810948         0.038615
 H         1.922590         1.909153        -1.571787
 H         0.893629         2.497729        -0.515412
 H         3.200352         1.405957         2.214608
 H         1.538839         1.237502         2.697828
 H         2.700406        -1.790761         3.344838
 H         1.041481        -2.180739         1.269091
 H         0.210223        -0.767512         2.083346
 H         0.513008        -0.300869        -0.786374
 H         3.057999        -1.736336        -1.206629
