19
Iteration:  2032
 C         1.942363         2.045064        -0.640757
 C         1.920254         1.023705         0.432670
 C         2.421463         1.062894         1.850412
 C         2.481108        -0.525345         1.737543
 O         3.296715        -1.451773         2.485332
 C         0.967903        -0.936580         1.740262
 C         0.910729        -0.277536         0.305356
 C         2.400598        -0.368904         0.158033
 O         3.375624        -0.865260        -0.644026
 H         0.989364         2.510088        -0.797007
 H         2.820062         2.603859        -0.476772
 H         2.235128         1.548482        -1.484337
 H         3.379274         1.613937         1.981104
 H         1.691684         1.386376         2.671808
 H         4.172917        -1.477460         2.123464
 H         0.754856        -2.055611         1.732243
 H         0.343889        -0.546480         2.565682
 H         0.050576        -0.037997        -0.251592
 H         3.040792        -1.735771        -0.775030
