19
Iteration:   489
 C         1.641659         1.969772        -0.737131
 C         1.933340         0.931570         0.399006
 C         2.211341         1.108266         1.899376
 C         2.454276        -0.517251         1.880438
 O         3.183789        -1.327791         2.725752
 C         1.005521        -1.037121         1.506547
 C         1.097496        -0.381719         0.201105
 C         2.653973        -0.357008         0.282941
 O         3.529216        -0.848698        -0.682375
 H         1.045244         2.802093        -0.323717
 H         2.515820         2.474448        -1.102867
 H         1.090654         1.648786        -1.662560
 H         3.196956         1.654379         1.887129
 H         1.550398         1.536337         2.582211
 H         4.085026        -1.549721         2.426178
 H         1.119382        -2.205485         1.696003
 H         0.307608        -0.625003         2.324781
 H         0.589040        -0.435414        -0.719444
 H         3.890728        -0.066185        -1.223525
