19
Iteration:  4262charge 0 multiplicity 1
 C         1.743649         2.019720        -0.631962
 C         1.937551         0.893413         0.345098
 C         2.098636         0.957207         1.974776
 C         2.453798        -0.550688         1.744071
 O         3.206697        -1.341607         2.580392
 C         0.943909        -1.003007         1.530269
 C         1.109774        -0.441986         0.093174
 C         2.593363        -0.352897         0.238961
 O         3.713582        -0.587523        -0.476494
 H         2.567769         2.360256        -1.267402
 H         0.862605         1.897369        -1.332628
 H         1.592808         2.968433         0.005188
 H         2.953622         1.550747         2.213280
 H         1.214300         1.247781         2.617954
 H         3.324879        -2.210295         2.118365
 H         0.580258        -1.948850         1.443959
 H         0.181314        -0.428996         2.231869
 H         0.493571        -0.335186        -0.745965
 H         3.722883        -1.472821        -0.717936
