19
Iteration:  4756
 C         1.710394         2.146957        -0.467288
 C         1.909665         0.887758         0.336919
 C         2.433328         0.970299         1.812306
 C         2.350666        -0.539857         1.795894
 O         3.150851        -1.177780         2.831399
 C         0.975559        -1.113412         1.452073
 C         1.015631        -0.380657         0.142850
 C         2.567361        -0.503325         0.090652
 O         3.660141        -0.678463        -0.711162
 H         1.226565         2.817432         0.265510
 H         2.631758         2.631876        -0.883380
 H         0.939823         2.178629        -1.283503
 H         3.521361         1.056521         1.883133
 H         1.863952         1.437060         2.561497
 H         2.781422        -2.016990         3.191037
 H         0.980969        -2.149994         1.358585
 H         0.194268        -0.821852         2.156265
 H         0.051191        -0.422074        -0.522750
 H         4.061251        -1.595652        -0.858273
