19
Iteration:   215charge 0 multiplicity 1
 C         1.806640         2.035522        -0.565869
 C         1.901347         0.816557         0.335851
 C         2.268194         1.033809         1.799280
 C         2.415937        -0.556635         1.821139
 O         3.349812        -1.178098         2.653337
 C         0.922388        -0.939284         1.586825
 C         0.987849        -0.395710         0.219812
 C         2.600794        -0.489452         0.229584
 O         3.497514        -0.802085        -0.756269
 H         0.836247         2.085296        -1.094473
 H         1.760912         2.868308         0.155770
 H         2.761964         2.219464        -1.212114
 H         3.292729         1.596398         1.952306
 H         1.421915         1.297815         2.483465
 H         3.497755        -0.579535         3.407772
 H         0.999248        -2.110145         1.405176
 H        -0.003792        -0.624201         2.296746
 H         0.187938        -0.354545        -0.428436
 H         3.629386        -1.757978        -0.692170
