19
Iteration:  3884charge 0 multiplicity 1
 C         1.767400         1.974408        -0.656185
 C         1.886080         0.955487         0.427462
 C         2.177576         0.970587         1.952153
 C         2.423429        -0.532863         1.817849
 O         3.197869        -1.359401         2.563718
 C         0.982941        -1.012903         1.481657
 C         1.039409        -0.334759         0.143482
 C         2.616536        -0.375469         0.212506
 O         3.638268        -0.661990        -0.598845
 H         2.678422         2.622877        -0.437380
 H         2.051138         1.383202        -1.618029
 H         0.874030         2.697725        -0.744794
 H         3.034923         1.661883         2.147177
 H         1.395536         1.179758         2.603044
 H         3.319472        -1.159564         3.507269
 H         1.000450        -2.172766         1.571741
 H         0.212982        -0.669292         2.148895
 H         0.353504        -0.237440        -0.761978
 H         3.757949        -1.675870        -0.649815
