19
Iteration:  1323
 C         1.834176         1.975528        -0.706340
 C         1.985723         0.967801         0.428435
 C         2.533256         1.079050         1.821942
 C         2.444704        -0.521730         1.836752
 O         3.196480        -1.388527         2.674923
 C         0.952988        -0.932171         1.758355
 C         0.998262        -0.324779         0.392367
 C         2.478733        -0.383501         0.180898
 O         3.314941        -0.795867        -0.910995
 H         2.302427         1.417183        -1.544630
 H         0.773229         2.198683        -0.926978
 H         2.449801         2.846952        -0.427314
 H         3.615049         1.468063         1.787320
 H         1.955915         1.527096         2.596866
 H         4.126948        -1.063880         2.600390
 H         0.990010        -2.017971         1.713338
 H         0.354124        -0.681995         2.661279
 H         0.142724        -0.289321        -0.369840
 H         3.136922        -1.757307        -1.108439
