19
Iteration:  1741charge 0 multiplicity 1
 C         1.971314         2.134041        -0.479141
 C         2.013330         0.941704         0.428706
 C         2.433222         1.033555         1.816327
 C         2.524267        -0.591772         1.834468
 O         3.357874        -1.273788         2.694383
 C         0.928442        -0.915637         1.728221
 C         1.021492        -0.204224         0.347935
 C         2.483139        -0.466845         0.076723
 O         3.121941        -1.018862        -1.032825
 H         2.271025         3.049425        -0.044728
 H         2.446666         1.728542        -1.315870
 H         0.889447         2.230050        -0.664940
 H         3.391362         1.672862         2.080570
 H         1.616672         1.367631         2.502237
 H         4.272684        -1.047399         2.645615
 H         0.766008        -1.973749         1.596072
 H         0.149765        -0.473012         2.469180
 H         0.021473        -0.079641        -0.192890
 H         2.767738        -1.950358        -0.954863
