19
Iteration:  3563charge 0 multiplicity 1
 C         1.797399         2.097527        -0.642607
 C         1.775929         0.996020         0.364099
 C         2.284543         1.070428         1.804416
 C         2.368468        -0.477138         1.852525
 O         3.302484        -1.400972         2.473647
 C         0.875325        -0.987222         1.608195
 C         1.072401        -0.376737         0.154610
 C         2.554469        -0.337924         0.277800
 O         3.570159        -1.004525        -0.445535
 H         2.660795         2.762893        -0.644343
 H         1.554132         1.583223        -1.578288
 H         1.004919         2.870856        -0.480096
 H         3.315739         1.422142         1.803253
 H         1.653687         1.476790         2.560371
 H         4.185219        -0.956991         2.385939
 H         0.836238        -2.087045         1.662864
 H         0.143393        -0.499438         2.263721
 H         0.472967        -0.532859        -0.812730
 H         4.236046        -0.369028        -0.876381
