19
Iteration:  2498
 C         1.841919         2.146492        -0.535572
 C         1.959309         0.941445         0.366202
 C         2.387765         0.893030         1.868933
 C         2.391005        -0.615939         1.903665
 O         3.104170        -1.196434         2.927508
 C         0.917798        -1.122573         1.543253
 C         1.120947        -0.343877         0.195113
 C         2.640170        -0.396560         0.148992
 O         3.405668        -0.756320        -1.003758
 H         1.941683         3.088380         0.047803
 H         2.724298         2.119589        -1.223601
 H         0.841765         2.344980        -1.099499
 H         3.325041         1.358561         1.773276
 H         1.750772         1.339272         2.636239
 H         3.948919        -0.757138         3.121013
 H         0.952761        -2.281370         1.507780
 H         0.103327        -0.953251         2.292229
 H         0.694894        -0.379374        -0.770381
 H         3.218578        -1.640932        -1.196532
