19
Iteration:   600charge 0 multiplicity 1
 C         1.802127         2.068777        -0.669388
 C         1.864895         0.996752         0.421890
 C         2.254250         1.057300         1.893988
 C         2.486607        -0.600666         1.802261
 O         3.279597        -1.123190         2.811274
 C         1.016906        -1.178881         1.530994
 C         1.110666        -0.333076         0.192516
 C         2.608796        -0.332318         0.217669
 O         3.285897        -0.978467        -0.839207
 H         1.128723         1.714752        -1.443467
 H         1.483469         2.901125        -0.104480
 H         2.780564         2.275359        -1.025646
 H         3.195573         1.647106         2.041051
 H         1.534728         1.251413         2.640807
 H         3.856474        -0.469298         3.230930
 H         1.028174        -2.269800         1.123071
 H         0.318552        -0.899714         2.416784
 H         0.469442        -0.491499        -0.670605
 H         4.189265        -1.152829        -0.687644
