19
Iteration:  3927charge 0 multiplicity 1
 C         1.813784         2.080300        -0.707963
 C         1.781822         0.950931         0.366722
 C         2.343279         0.979011         1.866754
 C         2.345637        -0.534039         1.791708
 O         3.199899        -1.417293         2.664787
 C         0.890873        -1.053180         1.530905
 C         1.052085        -0.445110         0.137449
 C         2.532971        -0.464977         0.241090
 O         3.684728        -0.531030        -0.477302
 H         2.414116         2.973137        -0.432531
 H         2.225973         1.703980        -1.705329
 H         0.765636         2.423559        -0.850617
 H         3.406168         1.314981         1.995599
 H         1.743747         1.433409         2.618258
 H         4.062059        -1.203862         2.227514
 H         0.648914        -2.191597         1.520837
 H         0.175128        -0.580020         2.107358
 H         0.253630        -0.329139        -0.659311
 H         3.797231        -1.506180        -0.774930
