19
Iteration:  3886charge 0 multiplicity 1
 C         1.762021         1.963691        -0.654408
 C         1.882981         0.944300         0.427038
 C         2.174927         0.977791         1.942467
 C         2.429083        -0.533515         1.823798
 O         3.182014        -1.359515         2.543831
 C         0.993160        -1.019650         1.484261
 C         1.047933        -0.321808         0.135524
 C         2.611905        -0.392543         0.228898
 O         3.647301        -0.654932        -0.594031
 H         2.653885         2.638143        -0.420261
 H         2.048600         1.365690        -1.559462
 H         0.892040         2.687298        -0.785214
 H         3.067706         1.630598         2.149885
 H         1.364574         1.189661         2.621876
 H         3.358230        -1.152971         3.458979
 H         0.984798        -2.120734         1.589946
 H         0.221575        -0.569149         2.194363
 H         0.354727        -0.224338        -0.685256
 H         3.737616        -1.611442        -0.662597
