19
Iteration:  3484
 C         1.890418         2.180163        -0.498166
 C         1.952960         0.875302         0.346318
 C         2.362176         0.951195         1.765472
 C         2.386048        -0.527523         1.907143
 O         3.149250        -1.139346         2.878933
 C         1.003936        -1.031031         1.584543
 C         1.073799        -0.529952         0.190787
 C         2.514642        -0.519718         0.108499
 O         3.367286        -0.788582        -0.929746
 H         2.886321         2.722810        -0.257004
 H         1.974888         1.962230        -1.575166
 H         0.931607         2.769633        -0.509176
 H         3.359464         1.421744         1.774370
 H         1.800475         1.649713         2.349844
 H         3.535384        -0.415902         3.442879
 H         1.086898        -2.087975         1.527531
 H         0.047171        -1.040689         2.211324
 H         0.439498        -0.704534        -0.616678
 H         4.226948        -1.198116        -0.638719
