19
Iteration:  1264
 C         1.921385         2.013238        -0.658644
 C         1.907396         0.954360         0.376912
 C         2.496659         1.076669         1.801973
 C         2.424132        -0.495340         1.777739
 O         3.282399        -1.313398         2.525153
 C         0.937029        -1.010338         1.742480
 C         0.933226        -0.391865         0.375291
 C         2.412182        -0.415833         0.200135
 O         3.328062        -0.818196        -0.678506
 H         1.300700         1.874014        -1.554480
 H         1.745644         3.031960        -0.225433
 H         2.921632         2.213742        -1.149993
 H         3.538912         1.495715         1.633268
 H         2.176024         1.717403         2.681142
 H         4.156987        -1.016256         2.323761
 H         0.899911        -2.114693         1.731685
 H         0.415881        -0.664758         2.568817
 H         0.130549        -0.387533        -0.354228
 H         3.322387        -1.799364        -0.835430
