19
Iteration:  4267charge 0 multiplicity 1
 C         1.775194         2.044416        -0.625023
 C         1.904221         0.905836         0.339799
 C         2.090834         0.987236         1.952459
 C         2.423611        -0.576549         1.788881
 O         3.275857        -1.345196         2.562639
 C         0.897768        -0.981326         1.524632
 C         1.096387        -0.487400         0.081651
 C         2.561969        -0.396111         0.219343
 O         3.733648        -0.563023        -0.443615
 H         2.607224         2.332969        -1.303279
 H         0.881670         2.004453        -1.310825
 H         1.621665         2.962318        -0.036470
 H         3.007374         1.575208         2.227223
 H         1.305678         1.300694         2.624889
 H         3.232600        -2.232346         2.182697
 H         0.586632        -2.118412         1.448241
 H         0.275592        -0.446299         2.162456
 H         0.343017        -0.240007        -0.755472
 H         3.773649        -1.536299        -0.762197
