19
Iteration:  1593charge 0 multiplicity 1
 C         1.842432         2.401106        -0.493802
 C         1.963234         1.021841         0.351952
 C         2.604753         1.067329         1.714374
 C         2.580721        -0.538212         1.697108
 O         3.264565        -1.298693         2.610217
 C         0.991648        -0.953075         1.771562
 C         0.940820        -0.294255         0.430921
 C         2.375087        -0.504377         0.140931
 O         3.222264        -1.203328        -0.795333
 H         0.754763         2.568572        -0.578306
 H         2.417414         3.152156         0.126897
 H         2.470871         2.302476        -1.395564
 H         3.579799         1.443295         1.881645
 H         1.977723         1.469113         2.649598
 H         4.229253        -1.405647         2.436498
 H         0.839352        -2.045785         1.605926
 H         0.273650        -0.600327         2.403866
 H         0.100999        -0.504184        -0.268057
 H         2.749402        -1.743724        -1.505375
