19
Iteration:  2621charge 0 multiplicity 1
 C         1.810699         2.178636        -0.576714
 C         1.907789         0.928782         0.411264
 C         2.305860         1.049184         1.909184
 C         2.376722        -0.573810         1.773907
 O         3.339326        -1.262796         2.611798
 C         0.903995        -1.077544         1.453202
 C         0.945678        -0.405488         0.091271
 C         2.518337        -0.378752         0.259228
 O         3.574036        -0.821624        -0.448892
 H         2.812801         2.247945        -1.204021
 H         1.017582         2.028391        -1.377180
 H         1.604338         3.171260        -0.101911
 H         3.303209         1.499712         1.965732
 H         1.666924         1.644594         2.550343
 H         3.641474        -2.043978         2.083466
 H         0.752949        -2.220612         1.403329
 H         0.184198        -0.617674         2.178989
 H         0.564756        -0.713060        -0.912847
 H         3.385411        -1.277396        -1.277082
