19
Iteration:  2007
 C         1.821120         2.103915        -0.726064
 C         1.968390         1.006642         0.377183
 C         2.370596         1.023297         1.896031
 C         2.430301        -0.509947         1.873629
 O         3.263341        -1.533217         2.436698
 C         0.916672        -0.812683         1.783277
 C         1.061567        -0.249407         0.383660
 C         2.519068        -0.433937         0.243136
 O         3.388534        -0.879966        -0.714282
 H         0.739813         2.260338        -0.973376
 H         2.407136         2.916377        -0.204731
 H         2.573888         1.884844        -1.584212
 H         3.466102         1.484794         1.816465
 H         1.824400         1.593785         2.621440
 H         4.048437        -1.524146         1.886358
 H         0.781271        -1.908157         1.784681
 H         0.185971        -0.408209         2.415750
 H         0.390148        -0.637096        -0.437716
 H         2.870280        -1.573086        -1.095146
