19
Iteration:  4947charge 0 multiplicity 1
 C         1.828756         2.149274        -0.536440
 C         1.986892         0.969267         0.349894
 C         2.389939         0.974704         1.908298
 C         2.376331        -0.617799         1.791789
 O         3.135625        -1.323217         2.736172
 C         0.912456        -1.100776         1.450276
 C         1.102279        -0.316818         0.158278
 C         2.536158        -0.413877         0.193560
 O         3.466370        -0.833254        -0.739404
 H         0.863998         2.640414        -0.120491
 H         2.665940         2.871197        -0.397195
 H         1.541236         1.798511        -1.543761
 H         3.468675         1.337768         2.157864
 H         1.704004         1.239894         2.709146
 H         3.744359        -0.718156         3.150420
 H         0.972693        -2.215578         1.322716
 H         0.147146        -0.874914         2.156544
 H         0.386472        -0.197733        -0.734419
 H         4.047315        -0.100581        -0.687063
