19
Iteration:  4234
 C         1.664149         2.118250        -0.610287
 C         1.889993         0.993627         0.454117
 C         2.212653         1.041450         1.963858
 C         2.320723        -0.558271         1.883207
 O         3.111693        -1.318027         2.828847
 C         0.960603        -1.169061         1.390910
 C         1.191346        -0.374256         0.109378
 C         2.666461        -0.327301         0.203424
 O         3.728989        -0.724337        -0.736582
 H         2.636385         2.398687        -1.030068
 H         1.040636         1.667892        -1.418277
 H         1.163317         3.003157        -0.178583
 H         3.292281         1.369789         2.041331
 H         1.538978         1.586301         2.638125
 H         3.761668        -1.810943         2.291739
 H         0.988558        -2.309262         1.050968
 H         0.065222        -1.108514         1.937226
 H         0.454575        -0.169713        -0.774509
 H         3.515009        -1.616657        -1.000830
