19
Iteration:  3760charge 0 multiplicity 1
 C         1.790101         1.999394        -0.729440
 C         1.908929         0.971266         0.423934
 C         2.271203         0.970739         2.039456
 C         2.376561        -0.535696         1.791962
 O         3.143572        -1.315021         2.654444
 C         0.949339        -1.039171         1.443500
 C         0.974947        -0.242564         0.220041
 C         2.599869        -0.350873         0.244166
 O         3.673648        -0.761192        -0.635197
 H         2.605411         2.746045        -0.812113
 H         1.866422         1.415652        -1.685393
 H         0.757631         2.420097        -0.713988
 H         3.189169         1.481231         2.072965
 H         1.683022         1.364852         2.829997
 H         4.060862        -1.293230         2.316579
 H         1.005737        -2.143000         1.290100
 H         0.229314        -0.824260         2.231497
 H         0.376641        -0.468240        -0.626973
 H         3.471639        -1.730912        -0.651398
