19
Iteration:  3322charge 0 multiplicity 1
 C         1.898385         2.138636        -0.728055
 C         1.859960         0.989272         0.364272
 C         2.284960         0.981614         1.929637
 C         2.385948        -0.586710         1.748129
 O         3.237742        -1.288605         2.658111
 C         0.970959        -1.030846         1.628500
 C         1.011987        -0.318102         0.199761
 C         2.533035        -0.408488         0.228762
 O         3.532806        -0.783961        -0.612210
 H         2.497004         2.962929        -0.268603
 H         2.452632         1.860040        -1.671010
 H         0.866442         2.363427        -1.039322
 H         3.333077         1.368158         1.997246
 H         1.659017         1.412075         2.767917
 H         3.636653        -2.046991         2.225352
 H         0.817314        -2.163928         1.415697
 H         0.299771        -0.781300         2.468829
 H         0.199010        -0.203542        -0.556168
 H         3.340611        -1.768546        -0.765645
