19
Iteration:  1499charge 0 multiplicity 1
 C         1.957466         1.935147        -0.608392
 C         1.855773         0.959911         0.457752
 C         2.529624         1.044302         1.738483
 C         2.496560        -0.489812         1.799011
 O         3.292673        -1.443263         2.558817
 C         1.021534        -0.856439         1.805164
 C         0.888697        -0.266257         0.385133
 C         2.346823        -0.471752         0.197108
 O         3.227092        -0.783207        -0.875011
 H         1.289181         2.807957        -0.422091
 H         2.966340         2.331055        -0.689753
 H         1.779361         1.631905        -1.654889
 H         3.685798         1.152963         1.571396
 H         2.335908         1.587793         2.626054
 H         4.249747        -1.168061         2.476037
 H         0.923408        -1.918176         1.884136
 H         0.450957        -0.340265         2.593349
 H         0.051656        -0.074808        -0.203753
 H         3.547704        -1.634226        -0.663738
