19
Iteration:  2956charge 0 multiplicity 1
 C         1.889287         2.084411        -0.697269
 C         1.942406         0.955274         0.415050
 C         2.211222         1.099880         1.894841
 C         2.362030        -0.538268         1.806701
 O         3.318126        -1.389585         2.448340
 C         0.935307        -1.086867         1.546891
 C         0.965219        -0.257356         0.288957
 C         2.480533        -0.376951         0.186122
 O         3.557914        -0.898674        -0.563348
 H         2.911567         2.370179        -0.998539
 H         1.189478         1.831410        -1.570687
 H         1.434067         2.999683        -0.129142
 H         3.207267         1.453201         2.106890
 H         1.447695         1.421865         2.615728
 H         3.367115        -1.117411         3.403704
 H         0.946194        -2.064639         1.202133
 H         0.131516        -0.833938         2.298104
 H         0.319088        -0.515254        -0.499507
 H         4.370414        -0.486328        -0.137786
