19
Iteration:   998charge 0 multiplicity 1
 C         1.723447         2.150548        -0.504597
 C         2.019774         0.934934         0.326131
 C         2.569122         1.088621         1.705754
 C         2.500369        -0.564796         1.763321
 O         3.205230        -1.248307         2.800827
 C         1.054308        -0.923945         1.711934
 C         1.020940        -0.336463         0.308792
 C         2.519598        -0.419629         0.087112
 O         3.208799        -1.043602        -0.846550
 H         2.092837         2.152040        -1.592962
 H         0.625809         2.380866        -0.639949
 H         2.227385         2.867330         0.167122
 H         3.629913         1.372085         1.684881
 H         2.063173         1.702498         2.387792
 H         4.166750        -1.207097         2.805026
 H         0.928265        -1.967245         1.597845
 H         0.370726        -0.514951         2.480861
 H         0.157191        -0.264517        -0.387078
 H         2.989535        -1.989932        -0.801860
