19
Iteration:   148
 C         1.786639         2.030460        -0.666281
 C         1.901403         0.993354         0.386508
 C         2.310150         1.063988         1.820880
 C         2.392060        -0.564645         1.815248
 O         3.262097        -1.296901         2.696523
 C         1.001358        -1.071339         1.575101
 C         1.096269        -0.290664         0.261747
 C         2.553737        -0.358545         0.238562
 O         3.368307        -0.963079        -0.665630
 H         1.768305         1.794367        -1.737341
 H         0.820964         2.554334        -0.607593
 H         2.536556         2.888069        -0.578383
 H         3.310383         1.572208         1.818433
 H         1.502207         1.580329         2.385913
 H         4.098883        -0.915580         2.326885
 H         1.198937        -2.176741         1.251452
 H         0.313582        -0.969136         2.564139
 H         0.391039        -0.317733        -0.532390
 H         4.236723        -0.476571        -0.802580
