19
Iteration:  2922
 C         1.814560         2.066226        -0.548579
 C         1.940210         1.006588         0.406261
 C         2.241674         0.943113         2.004034
 C         2.358109        -0.547500         1.844943
 O         3.290374        -1.213679         2.655874
 C         0.934266        -0.953276         1.456081
 C         1.121159        -0.371619         0.141780
 C         2.594256        -0.409456         0.190903
 O         3.469891        -0.962232        -0.800522
 H         2.722390         2.276105        -1.159608
 H         0.941826         1.925198        -1.289944
 H         1.471500         3.006726         0.069145
 H         3.233183         1.308105         2.238900
 H         1.590773         1.329875         2.828143
 H         2.886090        -1.532884         3.487402
 H         0.761500        -1.973620         1.497439
 H         0.061736        -0.476246         2.020900
 H         0.645819        -0.543803        -0.784302
 H         4.246868        -0.303711        -0.791700
