19
Iteration:  3916
 C         1.758358         2.013043        -0.704640
 C         1.931029         0.917667         0.357804
 C         2.314326         1.005205         1.873145
 C         2.369773        -0.566722         1.870127
 O         3.199355        -1.443092         2.556313
 C         0.776256        -1.049127         1.569049
 C         1.010413        -0.435829         0.157755
 C         2.529938        -0.348585         0.260185
 O         3.733941        -0.527853        -0.505520
 H         2.505964         2.764132        -0.347805
 H         2.251927         1.656641        -1.685366
 H         0.815540         2.513741        -1.027765
 H         3.306490         1.522726         1.946763
 H         1.640835         1.416742         2.571064
 H         4.109642        -1.079334         2.717209
 H         0.772168        -2.201557         1.775919
 H         0.048988        -0.554781         2.108762
 H         0.385592        -0.510780        -0.809372
 H         3.721285        -1.400865        -0.900740
