19
Iteration:   651
 C         1.680276         2.117816        -0.590929
 C         1.921777         0.893086         0.347767
 C         2.325156         1.000190         1.789573
 C         2.497518        -0.545141         1.802477
 O         3.153596        -1.203553         2.776133
 C         1.050191        -0.957486         1.653949
 C         1.089426        -0.387553         0.248662
 C         2.588708        -0.467080         0.137933
 O         3.415389        -0.961215        -0.826296
 H         2.180178         1.907868        -1.524760
 H         0.614102         2.400092        -0.613901
 H         2.287118         2.931649        -0.036526
 H         3.317722         1.369391         1.896147
 H         1.552342         1.448194         2.547739
 H         4.011433        -0.852465         3.118276
 H         0.988644        -2.033299         1.832282
 H         0.402815        -0.470889         2.290039
 H         0.402798        -0.596395        -0.473936
 H         4.067457        -0.309092        -1.155764
