19
Iteration:   392
 C         1.764301         2.057500        -0.602580
 C         1.867467         0.941879         0.317548
 C         2.120568         1.041183         1.918285
 C         2.417396        -0.543907         1.841582
 O         3.369543        -1.154442         2.649879
 C         1.024183        -1.095460         1.534119
 C         1.108299        -0.372302         0.195744
 C         2.629705        -0.385923         0.272308
 O         3.409810        -0.959297        -0.713695
 H         1.627088         3.107672        -0.192954
 H         2.727452         2.044118        -1.199388
 H         0.920661         2.055581        -1.388322
 H         3.104520         1.680935         2.008074
 H         1.237235         1.412129         2.506326
 H         3.262637        -0.905516         3.589877
 H         1.234974        -2.166772         1.334205
 H         0.107613        -0.936121         1.947740
 H         0.642481        -0.743329        -0.741739
 H         4.255765        -0.434210        -0.811063
