19
Iteration:  4254
 C         1.697009         2.014538        -0.626651
 C         1.938083         0.942552         0.401529
 C         2.140961         0.925040         1.958389
 C         2.406515        -0.538962         1.731198
 O         3.113426        -1.335201         2.620964
 C         0.976596        -1.012528         1.507714
 C         1.137236        -0.345804         0.144648
 C         2.684981        -0.312381         0.255647
 O         3.707783        -0.636038        -0.565583
 H         2.626064         2.186193        -1.189348
 H         0.814408         1.683918        -1.311411
 H         1.366210         2.947949        -0.023009
 H         2.975112         1.576092         2.226449
 H         1.272971         1.087030         2.509304
 H         3.486838        -2.084979         2.111088
 H         0.787934        -2.128984         1.543369
 H         0.217319        -0.580350         2.124973
 H         0.623304        -0.627641        -0.845051
 H         3.696471        -1.558043        -0.740034
