19
Iteration:  3876charge 0 multiplicity 1
 C         1.839919         2.036273        -0.662789
 C         1.879964         0.973259         0.414508
 C         2.195595         0.968486         1.970402
 C         2.376965        -0.536606         1.775905
 O         3.286149        -1.364820         2.663123
 C         0.928574        -1.052694         1.484900
 C         1.041195        -0.384694         0.154154
 C         2.583007        -0.281368         0.181941
 O         3.620427        -0.711690        -0.645354
 H         2.724993         2.724319        -0.661263
 H         1.818778         1.684404        -1.701184
 H         0.860112         2.545579        -0.526610
 H         3.045292         1.664061         2.181082
 H         1.347750         1.260287         2.653194
 H         3.032608        -1.071715         3.553718
 H         1.046546        -2.104295         1.271946
 H        -0.002156        -0.954556         2.165612
 H         0.500865        -0.480133        -0.750032
 H         3.759297        -1.693965        -0.546167
