19
Iteration:  1527charge 0 multiplicity 1
 C         1.897186         2.088521        -0.680590
 C         2.046903         1.015452         0.365300
 C         2.539127         0.998169         1.855238
 C         2.519155        -0.535028         1.772192
 O         3.316318        -1.394141         2.614457
 C         0.978489        -0.946348         1.805138
 C         0.906378        -0.221274         0.450772
 C         2.420387        -0.376074         0.153398
 O         3.155596        -0.960022        -0.926769
 H         0.869632         2.473725        -0.646791
 H         2.545303         2.980182        -0.481047
 H         2.087905         2.007552        -1.736464
 H         3.560736         1.237714         1.976885
 H         2.099783         1.349670         2.834062
 H         4.028369        -0.872630         3.002482
 H         0.827246        -2.061981         1.676587
 H         0.440602        -0.494082         2.694064
 H         0.133012        -0.325652        -0.415132
 H         2.930956        -1.897124        -0.820196
