19
Iteration:  2536charge 0 multiplicity 1
 C         1.912439         2.125864        -0.481329
 C         1.887393         0.874268         0.385442
 C         2.325064         0.969589         1.872543
 C         2.460674        -0.491585         1.735747
 O         3.121161        -1.260320         2.696080
 C         0.941674        -1.081941         1.587581
 C         1.044933        -0.424159         0.206169
 C         2.540707        -0.417443         0.111879
 O         3.488419        -0.757217        -0.775495
 H         2.520076         2.938059         0.013417
 H         2.354752         1.875297        -1.466864
 H         0.930408         2.447555        -0.763696
 H         3.327899         1.579553         1.987917
 H         1.658006         1.259102         2.734541
 H         3.661027        -0.613863         3.146519
 H         1.050866        -2.191872         1.563474
 H         0.269767        -0.606229         2.452352
 H         0.422888        -0.315589        -0.747656
 H         3.463206        -1.731464        -0.916886
