19
Iteration:  3996charge 0 multiplicity 1
 C         1.872526         2.112931        -0.477245
 C         1.865162         0.939334         0.365035
 C         2.070260         0.925627         1.879225
 C         2.450911        -0.621576         1.760357
 O         3.219264        -1.102503         2.817722
 C         1.008805        -1.175507         1.371015
 C         1.232789        -0.371086         0.115527
 C         2.738505        -0.285405         0.260369
 O         3.461536        -0.831876        -0.764080
 H         2.876081         2.719655        -0.528638
 H         1.532741         2.137649        -1.556140
 H         1.069841         2.816980         0.104619
 H         2.851759         1.612349         2.247910
 H         1.175092         1.122439         2.405079
 H         2.666064        -1.430545         3.569751
 H         1.005440        -2.246659         1.256943
 H         0.116813        -0.947818         2.055759
 H         0.760307        -0.562351        -0.801877
 H         2.971953        -1.540402        -1.149439
