19
Iteration:  4805
 C         1.919868         2.068017        -0.628248
 C         1.922210         0.945633         0.455650
 C         2.112561         0.974625         1.971283
 C         2.375358        -0.494764         1.897656
 O         3.252128        -1.275827         2.618435
 C         0.988542        -1.051672         1.529272
 C         1.122567        -0.391285         0.177100
 C         2.575199        -0.352488         0.219380
 O         3.450441        -0.778410        -0.784362
 H         1.161601         2.882554        -0.440970
 H         2.945975         2.491633        -0.672892
 H         1.625309         1.755967        -1.628469
 H         3.008868         1.643967         2.091322
 H         1.173684         1.115235         2.606647
 H         3.282581        -2.205394         2.395359
 H         1.160731        -2.207771         1.414887
 H         0.182289        -0.941092         2.290193
 H         0.440253        -0.408644        -0.623052
 H         4.352405        -0.612991        -0.488282
