19
Iteration:  3774charge 0 multiplicity 1
 C         1.762632         1.971809        -0.597252
 C         1.969611         0.980670         0.451411
 C         2.294836         1.050764         1.905476
 C         2.357964        -0.513050         1.824427
 O         3.167956        -1.252234         2.756406
 C         0.912249        -1.110318         1.446758
 C         1.105436        -0.333221         0.107853
 C         2.600704        -0.328667         0.202042
 O         3.573482        -0.785066        -0.642847
 H         2.683371         2.605690        -0.677976
 H         1.584163         1.398792        -1.588566
 H         0.932444         2.725731        -0.438783
 H         3.306011         1.357803         2.252577
 H         1.544555         1.340585         2.625621
 H         3.951852        -1.545204         2.241689
 H         1.098741        -2.208671         1.170959
 H        -0.019232        -0.926658         1.928505
 H         0.326110        -0.070803        -0.591675
 H         3.462082        -1.670032        -1.061060
