19
Iteration:  1334
 C         1.876338         2.045457        -0.661044
 C         1.879096         0.928378         0.358528
 C         2.518594         1.026053         1.800261
 C         2.481658        -0.496820         1.957971
 O         3.228261        -1.364348         2.704039
 C         1.021030        -0.964093         1.736187
 C         0.970196        -0.273015         0.356492
 C         2.467663        -0.454813         0.171413
 O         3.301388        -0.831534        -0.906207
 H         2.336482         1.985481        -1.672428
 H         0.825504         2.353042        -0.877476
 H         2.210692         3.020272        -0.281575
 H         3.576179         1.311493         1.460922
 H         2.274251         1.734894         2.558526
 H         4.137696        -1.115070         2.773680
 H         0.914478        -2.029447         1.578117
 H         0.172104        -0.580425         2.307652
 H         0.197503        -0.445110        -0.498942
 H         3.071025        -1.820786        -0.992848
