19
Iteration:  3485charge 0 multiplicity 1
 C         1.888968         2.180355        -0.507388
 C         1.951143         0.876913         0.340678
 C         2.369628         0.946008         1.769567
 C         2.389093        -0.525504         1.901705
 O         3.155150        -1.144927         2.880339
 C         0.991196        -1.036039         1.585413
 C         1.070179        -0.522923         0.181832
 C         2.514022        -0.506958         0.127283
 O         3.365388        -0.788908        -0.922673
 H         2.854353         2.721403        -0.261047
 H         1.976673         1.927769        -1.554943
 H         0.946001         2.761971        -0.545445
 H         3.371276         1.416620         1.767359
 H         1.782012         1.637268         2.376850
 H         3.562826        -0.415371         3.425051
 H         1.113539        -2.094549         1.540536
 H         0.059623        -1.054655         2.191925
 H         0.478201        -0.697306        -0.642885
 H         4.196801        -1.190309        -0.657175
