19
Iteration:  4145
 C         1.889097         2.052485        -0.570454
 C         1.893256         0.923257         0.419806
 C         2.174769         0.911436         1.927352
 C         2.376908        -0.598892         1.744501
 O         3.248800        -1.191927         2.631788
 C         0.925987        -1.166023         1.472386
 C         1.059162        -0.368825         0.158713
 C         2.651602        -0.317088         0.270807
 O         3.562699        -0.644996        -0.688231
 H         2.150894         2.936392        -0.055781
 H         2.563556         1.949904        -1.461418
 H         0.927468         2.376923        -0.991592
 H         3.162681         1.397138         2.245363
 H         1.319956         1.298293         2.545118
 H         2.669364        -1.301924         3.409583
 H         1.002579        -2.285694         1.115703
 H         0.091948        -0.998277         2.127466
 H         0.602144        -0.603188        -0.759125
 H         3.656472        -1.586970        -0.597369
