19
Iteration:  3376
 C         1.850567         2.099974        -0.661723
 C         1.893169         0.969051         0.356625
 C         2.309074         1.002881         1.827880
 C         2.374347        -0.541667         1.735299
 O         3.292049        -1.404767         2.464746
 C         0.874874        -0.911900         1.691858
 C         0.971914        -0.374030         0.228325
 C         2.424421        -0.401589         0.173912
 O         3.675986        -0.866107        -0.356663
 H         2.791055         2.682556        -0.668418
 H         1.552147         1.497459        -1.517122
 H         1.062914         2.895041        -0.645073
 H         3.299240         1.459565         2.131693
 H         1.482370         1.293803         2.560893
 H         4.141897        -1.105977         2.099620
 H         0.520973        -1.999616         1.602053
 H         0.124839        -0.253898         2.194788
 H         0.266586        -0.605661        -0.587171
 H         3.666429        -0.634754        -1.359628
