19
Iteration:   788charge 0 multiplicity 1
 C         1.781704         2.160263        -0.559075
 C         1.878724         0.884748         0.316082
 C         2.419855         1.001113         1.795656
 C         2.519426        -0.558522         1.771065
 O         3.308391        -1.213530         2.739392
 C         0.998863        -0.991053         1.629666
 C         0.903658        -0.261025         0.277184
 C         2.505950        -0.436017         0.172875
 O         3.373278        -1.038878        -0.701086
 H         1.914218         3.086482         0.004297
 H         2.569504         2.188459        -1.303951
 H         0.942331         2.182534        -1.179673
 H         3.462224         1.605526         1.752861
 H         1.831241         1.445260         2.628941
 H         4.131929        -0.738724         2.710021
 H         0.936827        -2.055511         1.441830
 H         0.458148        -0.526508         2.454721
 H         0.396832        -0.584312        -0.577512
 H         3.119003        -1.152875        -1.623317
