19
Iteration:  4087
 C         1.778234         2.026150        -0.670873
 C         1.860279         0.918124         0.443972
 C         2.209480         0.982058         1.912993
 C         2.338292        -0.566044         1.796888
 O         3.177125        -1.358313         2.550420
 C         0.901761        -1.004619         1.581579
 C         1.118632        -0.476991         0.084859
 C         2.602548        -0.378009         0.267151
 O         3.755383        -0.529882        -0.503818
 H         2.635155         2.800544        -0.555294
 H         1.872605         1.565695        -1.702481
 H         0.676994         2.475127        -0.576688
 H         3.182944         1.343235         2.105006
 H         1.454436         1.514723         2.495272
 H         3.372820        -2.050221         1.885384
 H         0.677764        -2.036243         1.786667
 H         0.103565        -0.395701         2.144311
 H         0.347139        -0.508614        -0.737181
 H         3.827931        -1.478543        -0.824746
