19
Iteration:  4056
 C         1.784650         2.114435        -0.497954
 C         1.842893         0.906554         0.396401
 C         2.184392         0.908978         1.825149
 C         2.388453        -0.601133         1.774382
 O         3.140599        -1.236435         2.776519
 C         0.918613        -1.074573         1.461598
 C         1.123791        -0.374130         0.059902
 C         2.613128        -0.410340         0.208546
 O         3.690960        -0.664306        -0.647058
 H         2.750896         2.579731        -0.599692
 H         1.310004         1.796274        -1.435025
 H         1.103646         2.830455         0.021849
 H         3.152872         1.432149         2.007058
 H         1.406889         1.404720         2.525417
 H         4.072458        -1.249930         2.487188
 H         0.902731        -2.210408         1.382489
 H         0.141523        -0.629844         2.132009
 H         0.556944        -0.547850        -0.862734
 H         3.799372        -1.608179        -0.706862
