19
Iteration:  4911
 C         1.701465         2.171886        -0.542742
 C         1.939700         0.983424         0.416768
 C         2.254905         1.025254         1.930197
 C         2.439424        -0.555110         1.778034
 O         3.106895        -1.504207         2.592841
 C         0.947670        -0.900611         1.610975
 C         1.203580        -0.420715         0.147727
 C         2.682232        -0.328535         0.127595
 O         3.514523        -0.872427        -0.750885
 H         0.601861         2.300679        -0.570136
 H         2.121351         3.196757        -0.224626
 H         2.122208         2.112094        -1.578427
 H         3.122464         1.753907         2.316547
 H         1.538861         1.152883         2.695915
 H         3.756983        -1.090111         3.168239
 H         0.676048        -1.949346         1.739424
 H         0.241215        -0.271966         2.120482
 H         0.579097        -0.382450        -0.704553
 H         4.042514        -1.498496        -0.313686
