19
Iteration:  3613
 C         1.718253         2.158107        -0.558826
 C         1.959196         0.920301         0.278135
 C         2.310897         1.031936         1.798219
 C         2.388094        -0.618713         1.822564
 O         3.156794        -1.176315         2.916178
 C         0.866001        -1.062637         1.566199
 C         1.065296        -0.343985         0.200678
 C         2.654445        -0.465113         0.128155
 O         3.616823        -0.896823        -0.746053
 H         2.748756         2.603534        -0.750895
 H         1.238314         2.066761        -1.531861
 H         1.239656         2.885303         0.118458
 H         3.394358         1.355231         1.901054
 H         1.539452         1.464518         2.552666
 H         3.922229        -1.636435         2.571143
 H         0.827561        -2.093423         1.311936
 H         0.186973        -0.549424         2.326356
 H         0.428494        -0.534166        -0.601637
 H         3.325067        -0.816933        -1.675596
