19
Iteration:  4482
 C         1.884320         2.102249        -0.627393
 C         1.900398         1.068959         0.451227
 C         2.168969         0.991370         1.929564
 C         2.352477        -0.552620         1.746088
 O         3.309617        -1.280907         2.526062
 C         1.004551        -1.259904         1.449655
 C         0.981841        -0.272591         0.133841
 C         2.494989        -0.288821         0.259246
 O         3.567091        -0.842985        -0.398766
 H         1.757825         3.012615        -0.149663
 H         2.822630         2.155464        -1.132436
 H         1.047229         1.945838        -1.301734
 H         3.138248         1.480284         2.115971
 H         1.320647         1.303679         2.627046
 H         4.251248        -1.306589         2.261677
 H         1.063221        -2.229099         1.041655
 H         0.143696        -1.165157         2.196752
 H         0.423549        -0.448074        -0.780703
 H         3.327171        -1.209162        -1.253375
