19
Iteration:  4447charge 0 multiplicity 1
 C         1.718549         2.053130        -0.624017
 C         1.901148         0.997271         0.380688
 C         2.088634         1.021629         2.020328
 C         2.410262        -0.561222         1.787110
 O         3.206300        -1.377392         2.468404
 C         0.847037        -1.058081         1.513439
 C         1.142346        -0.284799         0.176273
 C         2.641654        -0.327729         0.296454
 O         3.754787        -0.843046        -0.519220
 H         1.839308         3.000629        -0.129422
 H         2.450027         1.951636        -1.351694
 H         0.743227         2.026191        -1.068807
 H         2.987162         1.523900         2.251370
 H         1.261183         1.455323         2.649794
 H         4.030074        -1.328321         1.918802
 H         0.710088        -2.077451         1.561586
 H         0.296689        -0.618288         2.380139
 H         0.750353        -0.667357        -0.861917
 H         3.339758        -0.808325        -1.376489
