19
Iteration:  4803
 C         1.906078         2.085799        -0.638719
 C         1.922880         0.939241         0.453927
 C         2.131178         0.956731         1.985779
 C         2.387960        -0.515544         1.878977
 O         3.239889        -1.250247         2.631544
 C         0.996078        -1.061395         1.515621
 C         1.110728        -0.396703         0.164193
 C         2.574842        -0.352092         0.236107
 O         3.448566        -0.762326        -0.777449
 H         1.153582         2.891908        -0.426613
 H         2.977786         2.447622        -0.738669
 H         1.587756         1.729788        -1.648526
 H         3.091847         1.587950         2.084770
 H         1.284241         1.109596         2.615861
 H         3.215445        -2.215313         2.440780
 H         1.150868        -2.186895         1.403059
 H         0.208139        -0.935548         2.227318
 H         0.399908        -0.357897        -0.567158
 H         4.328010        -0.718297        -0.451615
