19
Iteration:   800
 C         1.737531         2.206061        -0.618385
 C         1.922769         0.990929         0.327696
 C         2.506451         0.987873         1.771214
 C         2.457755        -0.529698         1.762504
 O         3.243335        -1.232316         2.741727
 C         1.048460        -0.981949         1.662797
 C         0.988900        -0.354830         0.283421
 C         2.482256        -0.484702         0.159000
 O         3.386895        -1.033177        -0.725540
 H         1.529641         2.994069         0.095255
 H         2.698956         2.416437        -1.068346
 H         0.921443         2.236786        -1.237239
 H         3.616805         1.502183         1.712268
 H         1.849465         1.431532         2.528746
 H         4.001593        -0.671062         3.093036
 H         1.111052        -2.043451         1.594676
 H         0.273302        -0.925567         2.476409
 H         0.198151        -0.482169        -0.359881
 H         2.758466        -1.207999        -1.517779
