19
Iteration:   315charge 0 multiplicity 1
 C         1.738698         2.075399        -0.574131
 C         1.840559         0.916463         0.272622
 C         2.306227         1.032665         1.766057
 C         2.424220        -0.539003         1.786883
 O         3.317298        -1.219048         2.794235
 C         0.900771        -0.976856         1.591956
 C         1.069532        -0.470304         0.201958
 C         2.498414        -0.420617         0.231593
 O         3.538336        -0.888848        -0.677040
 H         0.693715         2.518445        -0.559754
 H         2.366372         2.967486        -0.344546
 H         1.962514         1.841231        -1.706763
 H         3.387314         1.545057         1.806560
 H         1.671752         1.665867         2.451491
 H         4.155986        -1.499646         2.332923
 H         0.828030        -2.094032         1.417293
 H         0.185815        -0.614285         2.368270
 H         0.298895        -0.789481        -0.586788
 H         4.188278        -0.218355        -0.615146
