19
Iteration:  2504
 C         1.875340         2.190324        -0.512937
 C         1.951153         0.880074         0.299751
 C         2.332642         0.872361         1.851508
 C         2.352674        -0.611260         1.900249
 O         3.148095        -1.214005         2.946763
 C         0.936413        -1.122620         1.531746
 C         1.095648        -0.300352         0.244187
 C         2.591310        -0.413651         0.082585
 O         3.436164        -0.739018        -0.953308
 H         1.993207         3.147442        -0.007034
 H         2.585606         2.124703        -1.333093
 H         0.921651         2.177222        -0.949494
 H         3.428673         1.238525         1.743928
 H         1.881881         1.471531         2.700609
 H         3.887386        -0.571875         3.171549
 H         0.962104        -2.164018         1.337864
 H         0.263372        -0.983619         2.420624
 H         0.676902        -0.417316        -0.808338
 H         3.194378        -1.694504        -1.180653
