19
Iteration:   138charge 0 multiplicity 1
 C         1.761046         2.116868        -0.712257
 C         1.981249         0.973932         0.354550
 C         2.253262         1.047733         1.864577
 C         2.422597        -0.526152         1.871550
 O         3.303176        -1.269378         2.674831
 C         0.980183        -1.079442         1.575049
 C         1.030895        -0.344357         0.258402
 C         2.602365        -0.348701         0.245540
 O         3.370883        -0.992928        -0.679772
 H         2.050831         1.626485        -1.635440
 H         0.734433         2.481715        -0.690998
 H         2.490591         2.956708        -0.468305
 H         3.254635         1.534738         2.110622
 H         1.557398         1.471033         2.599201
 H         4.253541        -1.240461         2.386925
 H         0.861300        -2.216480         1.409069
 H         0.016832        -0.761379         2.204672
 H         0.339480        -0.324488        -0.519650
 H         4.044988        -0.401535        -1.044356
