19
Iteration:  3675charge 0 multiplicity 1
 C         1.902817         2.145095        -0.646463
 C         1.971111         0.950322         0.315049
 C         2.220167         0.997769         1.919288
 C         2.346145        -0.562073         1.839430
 O         3.355678        -1.166967         2.766177
 C         0.950962        -1.122032         1.550749
 C         1.001494        -0.292617         0.157016
 C         2.479712        -0.452060         0.133466
 O         3.502915        -0.810038        -0.716865
 H         2.643869         2.871611        -0.335565
 H         2.040216         1.788587        -1.697177
 H         0.974305         2.732221        -0.600589
 H         3.238567         1.350664         2.094034
 H         1.432410         1.244615         2.635589
 H         2.918444        -1.856793         3.285946
 H         1.060838        -2.251267         1.331553
 H         0.245705        -1.068403         2.341402
 H         0.346928        -0.354140        -0.690809
 H         3.670482        -1.768453        -0.623181
