19
Iteration:  2927
 C         1.788994         2.099155        -0.608351
 C         1.997228         0.945330         0.447397
 C         2.219389         0.907740         1.968882
 C         2.340568        -0.553463         1.845717
 O         3.324184        -1.239613         2.630108
 C         0.886500        -0.955505         1.528911
 C         1.135641        -0.326678         0.098936
 C         2.593554        -0.365330         0.183895
 O         3.463808        -0.930134        -0.734743
 H         2.750118         2.208436        -1.114795
 H         0.977082         1.930798        -1.263128
 H         1.467440         2.972319        -0.126055
 H         3.245355         1.261360         2.214745
 H         1.529304         1.293411         2.709666
 H         2.978478        -1.466245         3.522161
 H         0.707761        -2.102886         1.389372
 H         0.163097        -0.498478         2.185327
 H         0.570500        -0.494794        -0.860567
 H         4.237202        -0.390655        -0.817592
