19
Iteration:  3769
 C         1.761791         1.956406        -0.637034
 C         1.956679         1.012103         0.420015
 C         2.294879         1.041931         1.970348
 C         2.354227        -0.480830         1.801344
 O         3.164841        -1.283052         2.734876
 C         0.944217        -1.080493         1.425181
 C         1.025725        -0.322345         0.165790
 C         2.640853        -0.351049         0.213537
 O         3.601768        -0.778422        -0.639339
 H         2.612122         2.634596        -0.698156
 H         1.726651         1.377226        -1.515452
 H         0.941266         2.637942        -0.526940
 H         3.327650         1.348967         2.104888
 H         1.536922         1.146499         2.802890
 H         3.970013        -1.434341         2.202578
 H         0.963535        -2.122783         1.189147
 H        -0.079686        -0.986384         1.941471
 H         0.259195        -0.175006        -0.626372
 H         3.511516        -1.723738        -0.946748
