19
Iteration:  1407charge 0 multiplicity 1
 C         1.800417         2.157404        -0.518645
 C         1.983710         1.015116         0.343500
 C         2.470916         1.023411         1.782504
 C         2.520247        -0.518686         1.772914
 O         3.361971        -1.327257         2.652388
 C         0.941270        -0.949902         1.623479
 C         1.028135        -0.284880         0.297134
 C         2.544557        -0.378969         0.199090
 O         3.156203        -1.067048        -0.768682
 H         2.623539         2.845060        -0.721676
 H         1.468656         1.904184        -1.521071
 H         1.021991         2.835240        -0.189709
 H         3.475017         1.400219         1.990588
 H         1.802091         1.495656         2.525322
 H         4.235579        -0.900271         2.710369
 H         0.915033        -2.085530         1.638922
 H         0.341581        -0.474210         2.501354
 H         0.375071        -0.493083        -0.568245
 H         2.749655        -1.970243        -0.753797
