19
Iteration:  4645charge 0 multiplicity 1
 C         2.005790         2.151513        -0.488664
 C         1.802462         0.896920         0.348160
 C         2.102999         1.019302         1.886194
 C         2.368286        -0.546243         1.825917
 O         3.343645        -1.246537         2.527955
 C         0.890818        -1.049193         1.570060
 C         1.057470        -0.485580         0.158700
 C         2.582373        -0.353886         0.230389
 O         3.517321        -0.777322        -0.616375
 H         1.131865         2.598442        -1.021686
 H         2.392999         2.856022         0.268898
 H         2.799652         1.919955        -1.265855
 H         3.031784         1.495847         1.960876
 H         1.402414         1.497340         2.546789
 H         3.948326        -1.550023         1.827898
 H         0.743741        -2.073626         1.600181
 H         0.169598        -0.590432         2.279280
 H         0.355632        -0.639836        -0.652233
 H         3.299369        -1.705125        -0.741319
