19
Iteration:  2295
 C         1.876008         2.075985        -0.433325
 C         1.893451         0.924807         0.421572
 C         2.349701         1.051746         1.798996
 C         2.463470        -0.519222         1.834250
 O         3.062542        -1.322504         2.846440
 C         1.076641        -0.947911         1.676404
 C         1.073884        -0.344677         0.243141
 C         2.559781        -0.488627         0.094274
 O         3.427613        -0.836248        -1.024027
 H         1.469393         1.778669        -1.493835
 H         1.211821         2.903435        -0.073185
 H         2.851227         2.457559        -0.680779
 H         3.371755         1.427397         1.681732
 H         1.772763         1.600523         2.456193
 H         4.002328        -1.128141         3.038071
 H         1.010626        -2.013363         1.718096
 H         0.457151        -0.436880         2.389101
 H         0.280257        -0.478920        -0.476249
 H         2.981736        -1.581706        -1.586840
