19
Iteration:  3185charge 0 multiplicity 1
 C         1.875529         2.016744        -0.735281
 C         1.938309         1.016574         0.394111
 C         2.175108         1.036076         1.987892
 C         2.403019        -0.593274         1.800705
 O         3.406433        -1.317485         2.521650
 C         0.871812        -1.034314         1.586552
 C         1.033616        -0.276725         0.178382
 C         2.502870        -0.382123         0.224266
 O         3.565710        -0.773184        -0.533884
 H         2.767576         2.022461        -1.319198
 H         0.934779         1.801097        -1.304029
 H         1.640051         3.084694        -0.543753
 H         3.066915         1.676274         2.129864
 H         1.323851         1.336241         2.727133
 H         3.113662        -2.268574         2.482169
 H         0.640579        -2.047601         1.376540
 H         0.197523        -0.545049         2.433730
 H         0.343718        -0.271469        -0.749961
 H         3.600357        -1.707906        -0.517350
