19
Iteration:  4401charge 0 multiplicity 1
 C         1.734471         2.201814        -0.457073
 C         1.819967         0.950748         0.355751
 C         2.337610         0.912641         1.770922
 C         2.414499        -0.630264         1.716648
 O         3.017266        -1.243694         2.790944
 C         0.984618        -1.151490         1.505158
 C         1.022975        -0.365498         0.129635
 C         2.582083        -0.389870         0.148652
 O         3.782597        -0.680538        -0.594888
 H         2.461744         3.001176        -0.101819
 H         1.785547         1.890880        -1.467452
 H         0.736182         2.516616        -0.209535
 H         3.345504         1.302024         1.760450
 H         1.764729         1.299948         2.589463
 H         3.979211        -1.111284         2.688025
 H         1.037437        -2.234270         1.210317
 H         0.135181        -1.087932         2.142274
 H         0.426586        -0.740431        -0.702275
 H         3.548102        -1.361333        -1.319769
