19
Iteration:  2952charge 0 multiplicity 1
 C         1.883486         2.102768        -0.704083
 C         1.960006         0.975625         0.402482
 C         2.206770         1.087242         1.855562
 C         2.371207        -0.589518         1.791786
 O         3.330162        -1.377790         2.470065
 C         0.906022        -1.085524         1.531008
 C         0.997069        -0.253678         0.321188
 C         2.496648        -0.378339         0.234737
 O         3.550327        -0.894874        -0.577101
 H         2.887387         2.315259        -1.061052
 H         1.114428         1.888459        -1.437934
 H         1.368169         2.897068        -0.190674
 H         3.198298         1.484643         2.212888
 H         1.425806         1.371239         2.625557
 H         3.267316        -1.104739         3.390820
 H         0.829721        -2.174759         1.221043
 H         0.132762        -0.734737         2.243470
 H         0.319096        -0.436397        -0.528217
 H         4.291338        -0.438064        -0.208889
