19
Iteration:  3212
 C         1.792240         2.003300        -0.619490
 C         1.947169         0.919868         0.397058
 C         2.366301         0.984894         1.915488
 C         2.371667        -0.606638         1.812326
 O         3.192310        -1.167448         2.735192
 C         0.855901        -1.049395         1.556283
 C         1.127612        -0.328886         0.171469
 C         2.576967        -0.403904         0.227531
 O         3.503981        -0.734731        -0.762568
 H         2.791201         2.223648        -1.102036
 H         0.958678         1.940925        -1.325699
 H         1.668825         2.979476        -0.143343
 H         3.429900         1.302918         1.979734
 H         1.702820         1.434913         2.640426
 H         3.419874        -2.083876         2.445446
 H         0.712338        -2.176168         1.440681
 H         0.208194        -0.550093         2.194778
 H         0.537354        -0.198475        -0.711922
 H         3.747329        -1.642572        -0.748988
