19
Iteration:  4571charge 0 multiplicity 1
 C         1.708839         2.029735        -0.648483
 C         2.024919         1.030103         0.442580
 C         2.465676         0.987689         1.957069
 C         2.434154        -0.575862         1.854597
 O         3.040572        -1.350257         2.804016
 C         1.069954        -1.152047         1.425396
 C         1.052102        -0.342781         0.138652
 C         2.591548        -0.309685         0.175874
 O         3.418242        -0.702641        -0.822838
 H         0.667250         2.167103        -0.788690
 H         2.083087         2.945061        -0.188539
 H         2.117485         1.825190        -1.671548
 H         3.602142         1.054684         1.987097
 H         1.943856         1.461447         2.841772
 H         3.438222        -0.713515         3.448686
 H         1.177183        -2.272306         1.306312
 H         0.137835        -0.978266         2.068101
 H         0.289847        -0.118485        -0.587855
 H         3.803135        -1.510335        -0.511932
