19
Iteration:   582
 C         1.844888         2.112928        -0.618569
 C         1.923519         0.956532         0.352183
 C         2.178566         0.945702         1.877948
 C         2.432241        -0.491684         1.800711
 O         3.282242        -1.157444         2.656071
 C         1.061697        -1.095368         1.616445
 C         1.084132        -0.411941         0.278071
 C         2.542677        -0.370549         0.198516
 O         3.365065        -0.979993        -0.773040
 H         0.971610         1.878413        -1.335666
 H         1.804118         3.198233        -0.107888
 H         2.728320         2.033061        -1.295210
 H         3.152444         1.442198         2.155328
 H         1.283233         1.289289         2.462270
 H         3.554755        -0.377282         3.159992
 H         1.190346        -2.125535         1.582756
 H         0.306707        -0.790855         2.327740
 H         0.413215        -0.544896        -0.685473
 H         4.193474        -0.543539        -0.704559
