19
Iteration:   812
 C         1.734635         2.192229        -0.543500
 C         1.957786         0.962553         0.338498
 C         2.473702         1.052490         1.736270
 C         2.493676        -0.489754         1.828315
 O         3.192863        -1.245315         2.709331
 C         1.019772        -1.058560         1.710587
 C         1.039617        -0.398714         0.315093
 C         2.504823        -0.402762         0.112835
 O         3.356091        -1.047197        -0.781694
 H         1.266990         3.035278        -0.077861
 H         2.578458         2.603817        -1.093454
 H         1.162807         1.839175        -1.342016
 H         3.697650         1.247414         1.783385
 H         2.070839         1.671041         2.537555
 H         3.850634        -0.667041         3.141378
 H         1.078751        -2.096116         1.551140
 H         0.272151        -0.525214         2.427458
 H         0.328714        -0.252080        -0.452269
 H         2.990046        -1.460220        -1.538203
