19
Iteration:  1011charge 0 multiplicity 1
 C         1.717541         2.133228        -0.427446
 C         2.019776         0.918300         0.322345
 C         2.529875         1.044051         1.750654
 C         2.526212        -0.486865         1.823431
 O         3.255519        -1.246217         2.745404
 C         0.980055        -0.847478         1.700842
 C         0.990913        -0.251202         0.303612
 C         2.439924        -0.558226         0.102024
 O         3.335476        -1.117131        -0.896373
 H         2.248172         2.177996        -1.374707
 H         0.632464         2.254429        -0.544740
 H         2.026005         3.140997        -0.043423
 H         3.598608         1.471226         1.584440
 H         1.926322         1.586419         2.439879
 H         4.136587        -0.805709         2.675033
 H         0.837391        -1.942238         1.760091
 H         0.308713        -0.386024         2.480169
 H         0.294444        -0.205545        -0.451428
 H         2.855916        -1.895055        -1.262335
