19
Iteration:  4991
 C         2.021015         2.137675        -0.464334
 C         1.815190         0.902248         0.451945
 C         2.150091         0.992245         1.884662
 C         2.430026        -0.554405         1.790393
 O         3.142664        -1.271516         2.673904
 C         0.992672        -1.095292         1.485992
 C         1.034540        -0.392417         0.155950
 C         2.571429        -0.429870         0.209713
 O         3.533366        -0.757503        -0.749674
 H         2.084972         3.057141         0.225593
 H         3.066455         1.849507        -0.759525
 H         1.297843         2.272959        -1.334402
 H         3.046260         1.744656         2.143203
 H         1.359012         1.294983         2.566373
 H         4.061962        -1.090178         2.801272
 H         1.201562        -2.174538         1.337856
 H         0.166333        -0.904030         2.133858
 H         0.355670        -0.383922        -0.738602
 H         3.130862        -0.910405        -1.577771
