19
Iteration:  3242
 C         1.828297         2.229961        -0.526320
 C         1.887984         0.829481         0.269048
 C         2.392513         0.912944         1.784626
 C         2.435633        -0.547311         1.871507
 O         3.067325        -1.126982         2.993115
 C         1.070349        -1.086661         1.586655
 C         1.051562        -0.412711         0.188108
 C         2.525524        -0.465395         0.042411
 O         3.534326        -0.751882        -0.885159
 H         2.898887         2.545393        -0.548871
 H         1.512317         2.442400        -1.556295
 H         1.516619         2.887387         0.307276
 H         3.433200         1.372258         1.808422
 H         1.665511         1.369017         2.564799
 H         2.916980        -2.070798         2.942129
 H         1.126732        -2.161313         1.483093
 H         0.264576        -0.774205         2.394695
 H         0.260191        -0.500727        -0.498986
 H         3.248633        -1.546558        -1.460356
