19
Iteration:   624
 C         1.740785         2.106889        -0.610672
 C         1.984655         0.954208         0.384524
 C         2.315579         1.012929         1.824915
 C         2.407030        -0.481068         1.959117
 O         3.233626        -1.133715         2.836700
 C         1.043295        -1.153693         1.548155
 C         1.095353        -0.350670         0.190985
 C         2.574833        -0.390729         0.141802
 O         3.298923        -0.957650        -0.885291
 H         1.650420         1.501109        -1.552918
 H         0.842597         2.702848        -0.258490
 H         2.593179         2.728150        -0.618506
 H         3.343583         1.455416         2.002809
 H         1.613674         1.399279         2.473638
 H         4.169470        -0.884376         3.041911
 H         1.354389        -2.199610         1.364117
 H         0.119747        -0.955922         2.258716
 H         0.353151        -0.569445        -0.706828
 H         4.261758        -1.072264        -0.738381
