19
Iteration:  3674
 C         1.895633         2.150434        -0.648165
 C         1.978628         0.948441         0.323079
 C         2.211066         0.992454         1.915596
 C         2.348718        -0.557723         1.846436
 O         3.346346        -1.167511         2.769416
 C         0.958265        -1.123131         1.546233
 C         1.007236        -0.283988         0.168712
 C         2.493126        -0.450109         0.136546
 O         3.494736        -0.820699        -0.721247
 H         2.690660         2.883963        -0.370948
 H         2.021288         1.772350        -1.713116
 H         0.945414         2.750857        -0.613759
 H         3.201388         1.388843         2.082895
 H         1.454896         1.265456         2.624296
 H         2.940563        -1.888623         3.260271
 H         1.074159        -2.243155         1.341644
 H         0.234244        -1.118122         2.319015
 H         0.346766        -0.344402        -0.718842
 H         3.698874        -1.743336        -0.689258
