19
Iteration:  2692charge 0 multiplicity 1
 C         1.820029         2.204880        -0.561618
 C         1.982794         1.009327         0.350589
 C         2.306454         0.944791         1.832830
 C         2.392657        -0.645095         1.807700
 O         3.198898        -1.075916         2.885036
 C         0.997704        -1.242356         1.431416
 C         1.123011        -0.381018         0.160129
 C         2.609660        -0.329096         0.257326
 O         3.433443        -0.875439        -0.758266
 H         2.796052         2.585515        -0.898906
 H         1.269671         1.997555        -1.484055
 H         1.250668         2.987727        -0.016635
 H         3.314861         1.215578         2.156836
 H         1.678539         1.401412         2.618818
 H         3.040476        -2.051049         2.819512
 H         0.821314        -2.289623         1.256252
 H         0.197470        -0.854358         2.219554
 H         0.712406        -0.675930        -0.811519
 H         2.793077        -0.808312        -1.465388
