19
Iteration:  4035charge 0 multiplicity 1
 C         1.809518         2.253383        -0.520011
 C         2.001965         0.945822         0.357657
 C         2.174103         0.967008         1.869545
 C         2.360909        -0.559129         1.810703
 O         3.090277        -1.201956         2.797395
 C         1.014738        -1.284821         1.434464
 C         1.113801        -0.444364         0.136907
 C         2.608312        -0.353468         0.156941
 O         3.612185        -0.770550        -0.701635
 H         2.757028         2.658342        -0.688546
 H         1.240953         2.175307        -1.434238
 H         1.321451         2.882807         0.152561
 H         3.111283         1.542269         2.167510
 H         1.348896         1.287371         2.596383
 H         3.644800        -0.443947         3.069506
 H         1.179272        -2.364674         1.057004
 H         0.138734        -1.232057         2.070554
 H         0.444400        -0.505909        -0.722462
 H         3.349683        -1.714347        -0.998261
