19
Iteration:  1878
 C         2.005469         2.078506        -0.688650
 C         2.055484         0.986364         0.412652
 C         2.421031         1.017891         1.903191
 C         2.446950        -0.591317         1.780313
 O         3.301511        -1.330948         2.576925
 C         0.988139        -1.011364         1.658069
 C         0.895228        -0.250870         0.395954
 C         2.413357        -0.417385         0.224263
 O         3.225311        -0.863781        -0.785690
 H         2.580265         1.701801        -1.594472
 H         0.916270         2.122567        -0.997648
 H         2.486544         3.063547        -0.467054
 H         3.519499         1.204065         1.948052
 H         2.023632         1.498944         2.860028
 H         4.186301        -0.828272         2.603555
 H         0.922012        -2.204296         1.502445
 H         0.387799        -0.591846         2.518687
 H        -0.064797        -0.056173        -0.190021
 H         2.671177        -1.522352        -1.317887
