19
Iteration:  3315charge 0 multiplicity 1
 C         1.889484         2.105208        -0.724808
 C         1.930849         0.980350         0.324177
 C         2.274347         0.956260         1.934269
 C         2.396170        -0.586262         1.823589
 O         3.237737        -1.266919         2.709199
 C         0.958089        -1.053628         1.623201
 C         1.000436        -0.282276         0.234556
 C         2.569070        -0.298587         0.182592
 O         3.493577        -0.815338        -0.697487
 H         2.374512         2.999152        -0.355058
 H         2.532364         1.892249        -1.576612
 H         0.839945         2.373323        -0.845723
 H         3.227868         1.335428         2.211066
 H         1.550991         1.202284         2.682318
 H         3.542045        -2.128299         2.353466
 H         0.845687        -2.105848         1.325887
 H         0.206909        -0.893999         2.364792
 H         0.338106        -0.363860        -0.611652
 H         3.393486        -1.817867        -0.748091
