19
Iteration:   792
 C         1.758520         2.182505        -0.579343
 C         1.900172         0.894170         0.321820
 C         2.480102         1.005648         1.799246
 C         2.457406        -0.567083         1.746863
 O         3.294992        -1.215406         2.749342
 C         1.023314        -0.986655         1.621278
 C         0.918824        -0.275254         0.278452
 C         2.501697        -0.452460         0.195076
 O         3.373681        -1.034542        -0.708322
 H         1.775169         3.076567         0.035765
 H         2.658188         2.241589        -1.247997
 H         0.886826         2.303585        -1.274664
 H         3.404848         1.620210         1.698726
 H         1.819936         1.364634         2.580296
 H         4.178427        -0.743917         2.909199
 H         1.093645        -2.062240         1.435744
 H         0.435068        -0.545959         2.554044
 H         0.284114        -0.663267        -0.540938
 H         3.052753        -1.196204        -1.646015
