19
Iteration:  2507charge 0 multiplicity 1
 C         1.894058         2.202695        -0.503665
 C         1.953214         0.876349         0.301651
 C         2.325432         0.884648         1.835957
 C         2.353520        -0.615053         1.893916
 O         3.162305        -1.221311         2.949884
 C         0.954895        -1.119771         1.540946
 C         1.066301        -0.298637         0.236167
 C         2.572445        -0.423062         0.067561
 O         3.444509        -0.741529        -0.928878
 H         2.041820         3.105441         0.002758
 H         2.518251         2.153017        -1.391118
 H         0.880184         2.112137        -0.932553
 H         3.360166         1.134402         1.828065
 H         1.913287         1.494178         2.638282
 H         3.797121        -0.510519         3.155354
 H         0.968756        -2.122227         1.199218
 H         0.347818        -0.935528         2.338450
 H         0.548310        -0.480732        -0.714778
 H         3.243917        -1.612755        -1.172403
