19
Iteration:   459charge 0 multiplicity 1
 C         1.724646         2.078873        -0.610559
 C         1.894935         0.905284         0.396979
 C         2.180906         0.980493         1.843214
 C         2.377602        -0.539857         1.849027
 O         3.218762        -1.118434         2.772301
 C         1.018112        -1.106451         1.563095
 C         1.102495        -0.465615         0.173233
 C         2.605880        -0.342331         0.184420
 O         3.513974        -0.892924        -0.764973
 H         1.512841         3.097275        -0.074309
 H         2.720954         2.192151        -1.174997
 H         0.915466         2.026064        -1.365670
 H         3.264394         1.405477         1.934235
 H         1.405116         1.436307         2.525449
 H         4.089674        -1.186361         2.366051
 H         1.035074        -2.171964         1.674281
 H         0.362098        -0.627344         2.214180
 H         0.500815        -0.610666        -0.643483
 H         4.379768        -0.491808        -0.607622
