19
Iteration:  3097charge 0 multiplicity 1
 C         1.774758         2.073338        -0.528887
 C         2.018640         0.931015         0.391256
 C         2.337040         0.973311         1.944388
 C         2.421543        -0.576105         1.812300
 O         3.070224        -1.221287         2.843104
 C         1.009474        -1.024556         1.531110
 C         1.080169        -0.339994         0.213787
 C         2.563174        -0.434270         0.111955
 O         3.516280        -0.811419        -0.932459
 H         2.600710         2.718740        -0.328729
 H         1.852267         1.649291        -1.559607
 H         0.849167         2.673775        -0.345375
 H         3.248493         1.471156         2.312331
 H         1.340869         1.195336         2.475858
 H         4.020755        -0.935886         2.833549
 H         0.920067        -2.054891         1.342146
 H         0.277909        -0.497586         2.258773
 H         0.176534        -0.177393        -0.387022
 H         3.643149        -1.734927        -1.130684
