19
Iteration:  2107charge 0 multiplicity 1
 C         1.886375         2.167707        -0.497799
 C         1.886297         0.919339         0.416212
 C         2.422685         1.049339         1.796795
 C         2.537583        -0.491499         1.754974
 O         3.148163        -1.338221         2.715466
 C         1.013856        -0.947760         1.723177
 C         1.094662        -0.299002         0.336361
 C         2.553931        -0.557053         0.164543
 O         3.303275        -0.930979        -0.995015
 H         2.246597         3.070300         0.149103
 H         2.458196         1.896272        -1.415183
 H         0.824513         2.516303        -0.817424
 H         3.470823         1.505224         1.858934
 H         1.727133         1.472282         2.491343
 H         3.366717        -0.632219         3.402081
 H         1.023163        -2.068360         1.729289
 H         0.331122        -0.560845         2.411757
 H         0.583934        -0.266653        -0.605262
 H         2.770597        -1.710716        -1.316326
