19
Iteration:  1627charge 0 multiplicity 1
 C         1.817239         2.081841        -0.534455
 C         1.987670         0.995251         0.459858
 C         2.613701         1.019149         1.818717
 C         2.503434        -0.541366         1.734895
 O         3.334362        -1.391866         2.441021
 C         0.890998        -0.803060         1.734500
 C         0.987673        -0.200301         0.392572
 C         2.433924        -0.479085         0.207709
 O         3.217321        -1.015210        -0.754802
 H         0.797108         2.468184        -0.683004
 H         2.392656         2.987477        -0.265178
 H         2.092298         1.810637        -1.543953
 H         3.636780         1.323788         1.744877
 H         1.997071         1.642524         2.557883
 H         4.245768        -1.110042         2.396825
 H         0.637480        -1.873399         1.650573
 H         0.188707        -0.302042         2.310103
 H         0.238948        -0.316027        -0.316709
 H         2.900248        -1.977844        -0.844079
