19
Iteration:   556
 C         1.844195         2.107792        -0.554010
 C         1.793497         0.858375         0.318689
 C         2.229788         1.069756         1.774284
 C         2.498325        -0.446237         1.828340
 O         3.379416        -1.248807         2.612405
 C         0.852797        -1.098761         1.606453
 C         0.993335        -0.413079         0.237576
 C         2.522957        -0.457895         0.244646
 O         3.521216        -0.912937        -0.656420
 H         0.885565         2.184830        -1.077461
 H         2.171608         2.993487        -0.047536
 H         2.536440         1.871653        -1.360561
 H         3.170309         1.659730         1.782771
 H         1.481994         1.458200         2.358503
 H         3.949793        -0.603847         3.042313
 H         0.837474        -2.262364         1.703362
 H         0.046229        -0.507637         2.170731
 H         0.485636        -0.507495        -0.643840
 H         3.978037        -0.135787        -0.939241
