19
Iteration:  2119charge 0 multiplicity 1
 C         1.825694         2.127442        -0.513730
 C         1.989240         0.963814         0.368000
 C         2.498632         1.029395         1.801603
 C         2.458653        -0.555204         1.860087
 O         3.168383        -1.321389         2.745796
 C         1.029939        -0.940044         1.622592
 C         1.056209        -0.357608         0.267451
 C         2.562466        -0.421261         0.168206
 O         3.273197        -0.924515        -0.926746
 H         2.489844         2.971052        -0.095428
 H         2.208503         2.056816        -1.543147
 H         0.765580         2.414258        -0.558688
 H         3.532575         1.456118         1.882860
 H         1.878739         1.510063         2.588589
 H         3.596022        -0.880920         3.481279
 H         0.923500        -2.043474         1.519035
 H         0.331914        -0.569665         2.336619
 H         0.198070        -0.549948        -0.398995
 H         2.731325        -1.577609        -1.458331
