19
Iteration:   851
 C         1.700732         2.080249        -0.632582
 C         2.024382         0.965266         0.351022
 C         2.425881         0.966255         1.859149
 C         2.501317        -0.559938         1.811618
 O         3.283152        -1.265359         2.745663
 C         0.985025        -0.863044         1.680018
 C         1.058791        -0.258212         0.280945
 C         2.545940        -0.503115         0.159093
 O         3.274940        -0.928338        -0.854106
 H         0.587364         2.387681        -0.636658
 H         2.367346         2.945369        -0.400167
 H         1.980057         1.630863        -1.678243
 H         3.308478         1.455390         1.865522
 H         1.708974         1.410688         2.585281
 H         4.232185        -1.116161         2.573831
 H         0.613890        -1.906477         1.896418
 H         0.468944        -0.339212         2.468980
 H         0.322311        -0.354678        -0.519521
 H         3.347264        -1.928176        -0.778660
