19
Iteration:  1711charge 0 multiplicity 1
 C         2.034418         2.142407        -0.601188
 C         1.917583         0.914289         0.388452
 C         2.582176         0.979251         1.758601
 C         2.461166        -0.609258         1.758035
 O         3.307147        -1.262719         2.656041
 C         0.922594        -0.989031         1.882488
 C         0.928866        -0.314675         0.328556
 C         2.414922        -0.450772         0.204373
 O         3.160306        -0.818783        -0.909716
 H         2.179030         2.947670         0.113364
 H         2.869056         1.789184        -1.219841
 H         1.139969         2.193771        -1.229680
 H         3.644852         1.224420         1.706157
 H         2.150873         1.515407         2.560768
 H         4.281138        -1.056447         2.589663
 H         0.689151        -2.088921         1.865517
 H         0.298534        -0.410995         2.629270
 H         0.211749        -0.396623        -0.448330
 H         2.676972        -1.463134        -1.387810
