19
Iteration:  3544charge 0 multiplicity 1
 C         1.799619         2.013809        -0.759142
 C         1.998709         1.000272         0.362799
 C         2.145389         1.135305         1.974326
 C         2.414687        -0.555441         1.801919
 O         3.276500        -1.397038         2.426301
 C         0.946355        -0.996671         1.624135
 C         1.068844        -0.303659         0.277295
 C         2.565154        -0.354248         0.281741
 O         3.472189        -0.970976        -0.533246
 H         2.571118         2.755380        -0.723863
 H         1.857205         1.560393        -1.747939
 H         0.876691         2.521166        -0.611095
 H         3.017387         1.763728         2.219588
 H         1.170244         1.533633         2.438600
 H         4.154239        -0.987414         2.497547
 H         0.838001        -2.079370         1.333018
 H         0.266782        -0.559941         2.271428
 H         0.404976        -0.372541        -0.657562
 H         4.369044        -0.516240        -0.307928
