19
Iteration:  1595
 C         1.847746         2.391476        -0.499949
 C         1.953111         1.018186         0.361059
 C         2.606056         1.056917         1.735584
 C         2.579653        -0.533095         1.678109
 O         3.263335        -1.310738         2.607931
 C         0.991305        -0.957089         1.781770
 C         0.921417        -0.283220         0.420039
 C         2.379986        -0.501630         0.139419
 O         3.230391        -1.200184        -0.789917
 H         0.803223         2.586522        -0.608793
 H         2.395475         3.114567         0.079326
 H         2.412472         2.405920        -1.414926
 H         3.590726         1.483937         1.808964
 H         2.008805         1.529721         2.552656
 H         4.254595        -1.404044         2.423984
 H         0.923106        -2.066007         1.626047
 H         0.207542        -0.566550         2.470131
 H         0.158542        -0.479093        -0.241490
 H         2.760690        -1.722729        -1.424007
