19
Iteration:  2418
 C         1.866972         1.993952        -0.544285
 C         1.867971         0.932529         0.402755
 C         2.474076         0.990447         1.912555
 C         2.389012        -0.551585         1.741833
 O         3.257388        -1.259822         2.462405
 C         0.852038        -0.958011         1.534478
 C         0.961428        -0.337889         0.232416
 C         2.476388        -0.386861         0.233420
 O         3.481316        -0.814083        -0.558056
 H         1.006687         2.648931        -0.608033
 H         2.747292         2.619385        -0.330501
 H         2.071233         1.585209        -1.571712
 H         3.448904         1.374760         1.903185
 H         1.887263         1.302990         2.746943
 H         4.143457        -0.841432         2.501645
 H         0.925607        -1.991541         1.412942
 H         0.117372        -0.712870         2.238138
 H         0.175580        -0.274923        -0.596047
 H         3.766981        -1.700336        -0.569414
