19
Iteration:  4323charge 0 multiplicity 1
 C         1.957580         2.144916        -0.536401
 C         1.873329         0.949618         0.404863
 C         2.102780         0.938630         1.913902
 C         2.403254        -0.563862         1.831517
 O         3.274558        -1.239838         2.673726
 C         0.983049        -1.204625         1.439109
 C         0.982037        -0.426292         0.138112
 C         2.514723        -0.352475         0.150701
 O         3.611071        -0.626003        -0.692719
 H         2.921688         1.896926        -1.084928
 H         1.164981         1.995476        -1.294314
 H         1.898306         3.162163        -0.173370
 H         3.004601         1.497133         2.238904
 H         1.282802         1.276457         2.532525
 H         2.797231        -1.284736         3.535823
 H         1.181029        -2.322307         1.134559
 H         0.149183        -1.200903         2.096208
 H         0.392553        -0.566974        -0.725411
 H         4.013440        -1.402195        -0.307620
