19
Iteration:  3428charge 0 multiplicity 1
 C         1.750093         2.154496        -0.592697
 C         2.038207         0.979376         0.367819
 C         2.313038         1.000338         1.894737
 C         2.404461        -0.535936         1.862857
 O         3.147753        -1.180785         2.876742
 C         0.976525        -1.160127         1.490288
 C         1.118903        -0.418200         0.116795
 C         2.660990        -0.368302         0.190068
 O         3.318899        -0.986318        -0.810179
 H         2.640625         2.645487        -1.127636
 H         1.093175         1.916085        -1.451279
 H         1.423179         2.946035         0.101335
 H         3.326321         1.414651         2.064880
 H         1.589135         1.479182         2.541972
 H         4.012089        -0.763538         2.851013
 H         1.099601        -2.206340         1.446280
 H         0.101104        -0.715234         2.069876
 H         0.633404        -0.295423        -0.875627
 H         4.229529        -0.562738        -0.884272
