19
Iteration:  1459
 C         1.914736         1.943659        -0.694178
 C         1.909597         0.901565         0.368777
 C         2.477668         0.994034         1.850325
 C         2.447076        -0.570080         1.827093
 O         3.369704        -1.401118         2.496450
 C         0.954511        -0.843884         1.837088
 C         0.920843        -0.197902         0.391899
 C         2.399178        -0.471544         0.152837
 O         3.311642        -0.791057        -0.708617
 H         1.970063         2.992802        -0.277683
 H         2.720848         1.817707        -1.480781
 H         0.887360         2.084019        -1.175492
 H         3.451527         1.337852         1.659364
 H         2.026208         1.710734         2.653856
 H         4.220024        -1.270397         2.087225
 H         0.649307        -1.912750         1.825471
 H         0.534531        -0.194715         2.678883
 H         0.077949        -0.068650        -0.221814
 H         3.045709        -1.482138        -1.401893
