19
Iteration:  1370charge 0 multiplicity 1
 C         1.863527         2.221754        -0.418582
 C         1.985694         0.901804         0.333241
 C         2.490951         0.921323         1.783615
 C         2.464609        -0.539683         1.744716
 O         3.257162        -1.129097         2.692602
 C         0.986197        -0.939730         1.741369
 C         0.964390        -0.332053         0.329034
 C         2.483084        -0.436999         0.016456
 O         3.294991        -1.078307        -0.913348
 H         2.667364         2.358327        -1.153554
 H         0.863437         2.028734        -0.836638
 H         1.862188         2.928569         0.450314
 H         3.517962         1.249756         1.877013
 H         1.772825         1.442094         2.482724
 H         3.983188        -0.571386         2.915118
 H         0.712435        -1.998351         1.903526
 H         0.352230        -0.261421         2.551694
 H         0.116728        -0.308875        -0.359533
 H         3.225828        -2.094665        -0.916585
