19
Iteration:  4213charge 0 multiplicity 1
 C         1.754946         2.176519        -0.448224
 C         1.961668         0.964311         0.354905
 C         2.280826         0.911366         1.824559
 C         2.386913        -0.618147         1.817078
 O         3.048142        -1.142537         2.945143
 C         1.030775        -1.203184         1.323232
 C         1.144397        -0.411053         0.084782
 C         2.597791        -0.350185         0.193324
 O         3.557931        -0.717270        -0.712340
 H         2.593926         2.864937        -0.520730
 H         1.458129         1.906876        -1.454107
 H         0.974522         2.778763        -0.092394
 H         3.321801         1.295131         2.139284
 H         1.467647         1.267074         2.550139
 H         3.975593        -1.362414         2.787461
 H         1.346165        -2.345960         1.096642
 H         0.226741        -1.289580         2.037944
 H         0.638742        -0.513518        -0.972359
 H         3.181854        -1.451991        -1.326724
