19
Iteration:  4887charge 0 multiplicity 1
 C         1.704620         2.187603        -0.518007
 C         1.936396         0.968675         0.362170
 C         2.365562         0.995757         1.817826
 C         2.351312        -0.540246         1.831668
 O         3.169641        -1.407956         2.580707
 C         0.954639        -1.046260         1.500462
 C         1.026215        -0.271886         0.174373
 C         2.591278        -0.384753         0.196841
 O         3.598158        -0.841822        -0.574784
 H         0.674896         2.352921        -0.769989
 H         2.093548         3.123394        -0.075538
 H         2.328945         2.098961        -1.427720
 H         3.378169         1.323869         2.103487
 H         1.709749         1.459173         2.601184
 H         4.086625        -1.131302         2.670852
 H         1.070513        -2.089251         1.319942
 H         0.099287        -0.870837         2.228147
 H         0.421040        -0.326199        -0.686586
 H         3.463656        -1.835559        -0.687305
