19
Iteration:  4217charge 0 multiplicity 1
 C         1.740850         2.154816        -0.501851
 C         1.969974         0.957410         0.354621
 C         2.293499         0.956070         1.877573
 C         2.372754        -0.602299         1.849398
 O         3.070601        -1.181503         2.953782
 C         1.012901        -1.257313         1.287662
 C         1.122679        -0.388827         0.079967
 C         2.614720        -0.330413         0.170731
 O         3.572527        -0.717842        -0.704808
 H         2.588936         2.869690        -0.657936
 H         1.329447         1.964684        -1.483699
 H         0.987990         2.810661         0.010157
 H         3.275707         1.357019         2.098956
 H         1.558954         1.364314         2.634574
 H         3.971677        -1.457163         2.677403
 H         1.283460        -2.247003         1.148841
 H         0.085419        -1.195070         1.997729
 H         0.640045        -0.522262        -0.826326
 H         3.232044        -1.404103        -1.235226
