19
Iteration:  2068charge 0 multiplicity 1
 C         1.957808         2.122284        -0.576285
 C         2.012557         0.955111         0.393702
 C         2.464690         0.952620         1.821156
 C         2.416849        -0.632385         1.795093
 O         3.373450        -1.264361         2.623307
 C         0.829541        -1.016726         1.682952
 C         0.964468        -0.268134         0.266678
 C         2.413272        -0.444772         0.198333
 O         3.251180        -0.852906        -0.795502
 H         1.715775         3.045131        -0.112533
 H         2.980822         2.360467        -0.874638
 H         1.354169         1.947595        -1.446809
 H         3.464866         1.327811         1.759906
 H         1.872444         1.507468         2.616289
 H         4.018504        -0.647346         2.946034
 H         0.766456        -2.095593         1.565138
 H         0.137264        -0.610344         2.508798
 H         0.232641        -0.219245        -0.591078
 H         3.516946        -1.743703        -0.844699
