19
Iteration:  4237
 C         1.655508         2.098238        -0.602644
 C         1.878489         0.999712         0.457168
 C         2.205260         1.033352         1.946580
 C         2.321303        -0.569649         1.882192
 O         3.108759        -1.325190         2.793849
 C         0.957497        -1.139045         1.396469
 C         1.194521        -0.372583         0.117886
 C         2.670854        -0.324596         0.214625
 O         3.742873        -0.719359        -0.730700
 H         2.603151         2.377868        -1.096875
 H         1.066212         1.685023        -1.350015
 H         1.236074         3.003450        -0.301151
 H         3.261990         1.377997         2.116996
 H         1.472300         1.562986         2.672579
 H         3.731556        -1.862706         2.262390
 H         1.040257        -2.223418         1.119154
 H         0.050280        -1.045920         2.054446
 H         0.529325        -0.203038        -0.715126
 H         3.559715        -1.638625        -0.953668
