19
Iteration:  3408
 C         1.755154         2.074945        -0.612357
 C         1.935979         1.057817         0.398622
 C         2.294213         1.106530         1.873828
 C         2.372661        -0.482501         1.837115
 O         3.134429        -1.303706         2.644870
 C         1.029189        -1.115065         1.497782
 C         1.097607        -0.274176         0.246590
 C         2.617629        -0.401897         0.225393
 O         3.479501        -1.049471        -0.624300
 H         2.646263         2.347991        -1.243881
 H         1.260958         1.616967        -1.448997
 H         1.307859         2.989741        -0.184275
 H         3.312018         1.529169         2.114565
 H         1.549247         1.583467         2.580639
 H         4.064971        -1.074412         2.502240
 H         1.202323        -2.116618         1.072849
 H         0.113913        -1.010683         2.184560
 H         0.445899        -0.473750        -0.618603
 H         3.810959        -0.321812        -1.126282
