19
Iteration:  4219
 C         1.736581         2.150757        -0.523242
 C         1.971186         0.955713         0.361462
 C         2.290629         0.974506         1.904537
 C         2.365870        -0.591993         1.858842
 O         3.079700        -1.199438         2.954467
 C         1.001718        -1.273927         1.287075
 C         1.117731        -0.377977         0.080235
 C         2.626948        -0.325808         0.161115
 O         3.582903        -0.716381        -0.702197
 H         2.593972         2.834549        -0.707496
 H         1.260973         1.964705        -1.546836
 H         0.972915         2.824295         0.063428
 H         3.257163         1.387694         2.067253
 H         1.626902         1.402461         2.631945
 H         3.957950        -1.492914         2.623087
 H         1.256089        -2.271608         1.144953
 H         0.074856        -1.150039         1.930181
 H         0.604565        -0.522970        -0.809833
 H         3.238338        -1.434011        -1.226589
