19
Iteration:   264charge 0 multiplicity 1
 C         1.783705         2.047444        -0.702456
 C         1.874657         0.958634         0.342447
 C         2.218123         1.067782         1.881093
 C         2.453111        -0.500752         1.873740
 O         3.362989        -1.254520         2.685001
 C         1.027254        -1.139642         1.512872
 C         1.062922        -0.282750         0.199908
 C         2.526166        -0.388249         0.231063
 O         3.415822        -0.959268        -0.601390
 H         0.805896         2.230532        -1.176130
 H         1.997193         2.997683        -0.140333
 H         2.573105         1.953587        -1.375139
 H         3.109648         1.605043         1.932983
 H         1.434466         1.515210         2.483259
 H         3.930344        -0.731020         3.259426
 H         1.198418        -2.158283         1.320580
 H         0.241023        -0.967646         2.380821
 H         0.417027        -0.383125        -0.745594
 H         3.254858        -0.783326        -1.578822
