19
Iteration:  1537charge 0 multiplicity 1
 C         1.854895         2.158144        -0.648132
 C         2.061891         1.038008         0.422804
 C         2.542452         0.959592         1.874461
 C         2.459605        -0.622255         1.841398
 O         3.350269        -1.333578         2.604662
 C         1.020116        -0.895054         1.780729
 C         0.998278        -0.240266         0.349042
 C         2.456152        -0.401107         0.126049
 O         3.105529        -1.026373        -0.910114
 H         0.766889         2.411487        -0.717917
 H         2.344766         3.085468        -0.255557
 H         2.186840         1.706841        -1.607500
 H         3.584151         1.152880         1.936760
 H         1.843546         1.585856         2.556721
 H         4.034805        -0.784635         2.957785
 H         0.901143        -1.999798         1.835673
 H         0.300389        -0.491624         2.443769
 H         0.136339         0.038820        -0.380413
 H         2.658542        -1.901983        -1.090512
