19
Iteration:   610charge 0 multiplicity 1
 C         1.770449         2.057713        -0.626795
 C         1.887375         0.968213         0.374279
 C         2.255051         1.028276         1.909829
 C         2.423719        -0.536957         1.877328
 O         3.308505        -1.174563         2.880238
 C         1.081212        -1.095700         1.463699
 C         1.115046        -0.329227         0.229094
 C         2.596786        -0.372535         0.198508
 O         3.273765        -0.973892        -0.890986
 H         1.284061         1.784169        -1.541332
 H         1.191915         2.879781        -0.327857
 H         2.732983         2.413038        -0.978972
 H         3.280170         1.445494         1.969260
 H         1.572497         1.596222         2.599316
 H         3.845710        -0.387082         2.893448
 H         1.152930        -2.256131         1.200559
 H         0.157073        -1.137033         2.158885
 H         0.549307        -0.429222        -0.655157
 H         4.126096        -1.158980        -0.499256
