19
Iteration:  2014
 C         1.897574         2.117075        -0.748393
 C         1.914270         0.980895         0.384492
 C         2.379801         1.059221         1.915758
 C         2.460800        -0.574570         1.849835
 O         3.268283        -1.528832         2.429715
 C         0.973864        -0.823456         1.762516
 C         0.974222        -0.240953         0.371471
 C         2.493084        -0.400918         0.294788
 O         3.372591        -0.884156        -0.692626
 H         0.823155         2.340811        -0.910306
 H         2.416673         3.044630        -0.325951
 H         2.357053         1.885245        -1.794233
 H         3.333567         1.515255         1.881169
 H         1.677394         1.572109         2.596783
 H         4.071372        -1.599447         1.929397
 H         0.861235        -1.890844         1.818540
 H         0.274803        -0.346589         2.534770
 H         0.450965        -0.687643        -0.506700
 H         3.125540        -1.621046        -1.222273
