19
Iteration:  3529charge 0 multiplicity 1
 C         1.841429         1.958190        -0.731276
 C         1.976274         1.036792         0.433671
 C         2.195909         1.040078         1.964799
 C         2.396515        -0.432945         1.822067
 O         3.247271        -1.346692         2.576260
 C         0.978161        -1.020374         1.588911
 C         1.013511        -0.225098         0.215743
 C         2.568141        -0.369612         0.219645
 O         3.467135        -0.946180        -0.695207
 H         2.586592         2.809273        -0.841397
 H         2.012705         1.438294        -1.697866
 H         0.745398         2.175529        -0.841156
 H         2.888979         1.648693         2.536021
 H         1.351791         1.081638         2.606979
 H         4.190595        -1.022011         2.576855
 H         1.119348        -2.094741         1.573167
 H         0.197192        -0.945853         2.399399
 H         0.293334        -0.226032        -0.583621
 H         4.312349        -1.006715        -0.236102
