19
Iteration:  1959
 C         1.811034         2.228705        -0.547448
 C         1.912692         0.947143         0.330900
 C         2.577622         0.892772         1.735734
 C         2.453032        -0.625453         1.811391
 O         3.213343        -1.319713         2.704670
 C         0.969691        -0.906435         1.676207
 C         0.934681        -0.215176         0.357135
 C         2.521188        -0.435379         0.130793
 O         3.335236        -0.950287        -0.825115
 H         0.915379         2.100658        -1.206665
 H         1.661891         3.111616         0.195301
 H         2.855971         2.407455        -1.114092
 H         3.582756         1.240340         1.753351
 H         1.997634         1.464822         2.527493
 H         4.143803        -0.995029         2.692500
 H         0.921699        -1.980373         1.552409
 H         0.270653        -0.694579         2.541221
 H         0.170880        -0.010629        -0.401697
 H         3.307482        -1.947496        -0.799171
