19
Iteration:   849
 C         1.694089         2.088945        -0.617683
 C         2.018195         0.947020         0.341948
 C         2.424828         0.965248         1.863486
 C         2.494223        -0.544069         1.805345
 O         3.284107        -1.262056         2.742029
 C         1.000421        -0.844223         1.659650
 C         1.060927        -0.269215         0.293754
 C         2.562825        -0.509218         0.168678
 O         3.269514        -0.937934        -0.846968
 H         0.620084         2.367467        -0.629094
 H         2.386709         2.928465        -0.439243
 H         1.902523         1.629410        -1.685211
 H         3.362809         1.460032         1.825043
 H         1.712630         1.373106         2.634864
 H         4.221730        -1.138921         2.690013
 H         0.637039        -1.908302         1.853145
 H         0.374100        -0.354900         2.487348
 H         0.304523        -0.277031        -0.592800
 H         3.325482        -1.877861        -0.893369
