19
Iteration:  2109charge 0 multiplicity 1
 C         1.873460         2.169613        -0.508113
 C         1.890035         0.919692         0.415043
 C         2.448923         1.060660         1.785349
 C         2.521869        -0.501223         1.758968
 O         3.146798        -1.336383         2.722275
 C         1.023844        -0.949134         1.702398
 C         1.109691        -0.309638         0.339890
 C         2.540940        -0.535095         0.189433
 O         3.302465        -0.931038        -0.991985
 H         2.292867         3.032432         0.110214
 H         2.409822         1.929069        -1.400763
 H         0.866430         2.441155        -0.709239
 H         3.489756         1.445571         1.877437
 H         1.650985         1.459705         2.512846
 H         3.397395        -0.685148         3.425815
 H         1.028519        -2.055860         1.665190
 H         0.305669        -0.523252         2.379732
 H         0.493623        -0.305029        -0.618623
 H         2.742884        -1.709786        -1.375868
