19
Iteration:  2535
 C         1.907264         2.130051        -0.479277
 C         1.897602         0.869238         0.380509
 C         2.337136         0.967338         1.872265
 C         2.464782        -0.495005         1.732994
 O         3.120236        -1.253120         2.708525
 C         0.937318        -1.086874         1.576993
 C         1.039932        -0.426944         0.210496
 C         2.532299        -0.422934         0.104394
 O         3.486343        -0.755794        -0.776143
 H         2.531584         2.953776         0.034091
 H         2.383623         1.877376        -1.464016
 H         0.916385         2.466332        -0.792498
 H         3.298314         1.608620         1.993137
 H         1.662630         1.237191         2.719647
 H         3.650550        -0.612351         3.171483
 H         1.077219        -2.225967         1.579063
 H         0.275085        -0.611857         2.450512
 H         0.422912        -0.260712        -0.721475
 H         3.447139        -1.693732        -0.919857
