19
Iteration:   543charge 0 multiplicity 1
 C         1.788670         2.024094        -0.593195
 C         1.793618         0.920145         0.379021
 C         2.309009         0.976614         1.768308
 C         2.399770        -0.565317         1.778676
 O         3.334539        -1.210172         2.574187
 C         0.875840        -0.936842         1.616514
 C         1.039471        -0.502031         0.187986
 C         2.523500        -0.413031         0.229361
 O         3.537948        -0.842351        -0.553061
 H         0.842393         2.377520        -0.887217
 H         2.205384         2.845079        -0.120473
 H         2.422045         1.835739        -1.479954
 H         3.272997         1.456080         1.680423
 H         1.832893         1.471988         2.581798
 H         4.047974        -0.607427         2.891671
 H         0.888990        -2.117810         1.588615
 H         0.126549        -0.650112         2.398606
 H         0.434986        -0.731908        -0.614477
 H         3.975385        -0.075993        -1.019769
