19
Iteration:  1838
 C         1.926579         2.114116        -0.663474
 C         1.902474         0.981685         0.420662
 C         2.489101         1.041334         1.893684
 C         2.454522        -0.559035         1.799347
 O         3.311870        -1.461036         2.523662
 C         0.945537        -0.814769         1.770787
 C         0.908848        -0.371744         0.323052
 C         2.448517        -0.441530         0.194433
 O         3.322252        -0.849313        -0.766245
 H         2.726090         2.093670        -1.427387
 H         0.951453         2.047171        -1.159610
 H         2.049576         3.067532        -0.063839
 H         3.542881         1.306015         1.733170
 H         2.019245         1.797326         2.532263
 H         4.066923        -1.660615         1.992306
 H         0.512078        -1.754564         1.777665
 H         0.449931        -0.175120         2.499257
 H         0.028166        -0.336133        -0.302402
 H         3.367520        -1.809208        -0.806902
