19
Iteration:  3798
 C         1.821082         2.205093        -0.534349
 C         1.962302         0.911574         0.306734
 C         2.169635         0.967823         1.838988
 C         2.370323        -0.565162         1.798658
 O         3.166738        -1.141039         2.813084
 C         0.958527        -1.126738         1.519101
 C         1.085872        -0.395905         0.133205
 C         2.676265        -0.384623         0.283110
 O         3.567743        -0.822038        -0.730126
 H         2.780415         2.740508        -0.698221
 H         1.292714         1.994054        -1.489126
 H         1.201762         2.931895         0.031853
 H         3.240415         1.337724         2.093488
 H         1.453659         1.242124         2.672501
 H         3.625963        -1.867322         2.378394
 H         0.854615        -2.195669         1.272863
 H         0.126452        -0.712370         2.127308
 H         0.613383        -0.889010        -0.782468
 H         3.307682        -1.490657        -1.315951
