19
Iteration:   902charge 0 multiplicity 1
 C         1.994619         1.963633        -0.656886
 C         1.806020         0.976796         0.360753
 C         2.445283         1.035771         1.747693
 C         2.510961        -0.486616         1.743172
 O         3.379894        -1.328660         2.528905
 C         0.931315        -0.922871         1.762965
 C         0.870845        -0.369552         0.351491
 C         2.384455        -0.421503         0.201803
 O         3.315190        -0.809597        -0.635034
 H         1.084506         2.008407        -1.151851
 H         2.060238         2.917635        -0.179826
 H         2.891730         1.621405        -1.160084
 H         3.588348         1.396295         1.601628
 H         2.000135         1.683890         2.577647
 H         4.128324        -0.767531         2.654386
 H         0.964577        -2.049766         1.678378
 H         0.370730        -0.689782         2.751844
 H         0.155282        -0.545679        -0.530394
 H         3.076204        -1.652331        -0.922296
