19
Iteration:  1245
 C         1.938919         2.198884        -0.547331
 C         1.823001         0.929950         0.357122
 C         2.450121         1.001741         1.711255
 C         2.476832        -0.466579         1.783972
 O         3.286511        -1.214840         2.540067
 C         1.043842        -0.948975         1.745874
 C         0.844881        -0.369652         0.315827
 C         2.358905        -0.507197         0.153494
 O         3.394842        -0.970430        -0.705830
 H         1.081175         2.256082        -1.262538
 H         1.947468         2.973948         0.265165
 H         2.916007         2.102439        -1.033791
 H         3.568321         1.371215         1.828365
 H         1.909566         1.472552         2.442441
 H         4.203448        -0.967528         2.535659
 H         1.119845        -2.091440         1.739921
 H         0.315918        -0.622572         2.560638
 H         0.180066        -0.587152        -0.415751
 H         3.379584        -1.983669        -0.503968
