19
Iteration:  1992charge 0 multiplicity 1
 C         1.796630         2.051339        -0.572663
 C         1.994605         0.964774         0.431805
 C         2.528043         1.084739         1.857279
 C         2.408965        -0.543628         1.834352
 O         3.230514        -1.436848         2.488850
 C         0.877652        -0.856718         1.720569
 C         1.026269        -0.319503         0.306044
 C         2.547163        -0.360656         0.240505
 O         3.379160        -0.929804        -0.757496
 H         0.756545         2.045172        -1.036557
 H         1.965605         3.126090        -0.221845
 H         2.473310         1.896441        -1.543630
 H         3.544620         1.377398         1.953967
 H         1.828967         1.555802         2.574033
 H         4.123756        -1.458821         2.033893
 H         0.651870        -1.915613         1.800106
 H         0.216638        -0.258565         2.434960
 H         0.294371        -0.005063        -0.488101
 H         3.009968        -1.730642        -1.264741
