19
Iteration:  2391charge 0 multiplicity 1
 C         1.922192         2.164162        -0.619294
 C         1.867058         1.010052         0.339000
 C         2.280551         1.041154         1.824359
 C         2.374034        -0.612255         1.796368
 O         3.350505        -1.439870         2.427673
 C         0.875570        -0.958455         1.702499
 C         0.929661        -0.316217         0.248851
 C         2.453335        -0.330851         0.211905
 O         3.528533        -0.913348        -0.572990
 H         0.902960         2.509959        -0.911930
 H         2.400261         3.076542        -0.232762
 H         2.469882         1.796473        -1.484518
 H         3.298564         1.540685         2.226295
 H         1.476707         1.406255         2.578156
 H         4.239947        -0.998158         2.417937
 H         0.930002        -2.117428         1.672701
 H         0.202728        -0.659412         2.573202
 H         0.293776        -0.280445        -0.595770
 H         4.058216        -1.584345        -0.214796
