19
Iteration:  4686charge 0 multiplicity 1
 C         1.848864         2.036349        -0.581804
 C         2.007701         1.050004         0.438672
 C         2.230870         0.891743         1.910721
 C         2.331244        -0.626912         1.753925
 O         3.246618        -1.117062         2.631222
 C         1.019370        -1.181784         1.406057
 C         1.052456        -0.229658         0.233846
 C         2.557954        -0.278917         0.248638
 O         3.487701        -0.877158        -0.566546
 H         0.838066         2.483090        -0.640827
 H         2.476293         2.886375        -0.376812
 H         2.072583         1.878929        -1.612556
 H         3.225495         1.200476         2.200804
 H         1.330467         1.243862         2.496249
 H         3.944784        -1.670648         2.193737
 H         0.972610        -2.191542         0.961928
 H         0.167165        -1.066482         2.093205
 H         0.374770        -0.122023        -0.526410
 H         3.044336        -1.637462        -0.978339
