19
Iteration:  2224charge 0 multiplicity 1
 C         1.975302         1.982898        -0.564279
 C         1.881404         0.931085         0.474202
 C         2.357047         1.045055         1.884659
 C         2.467591        -0.539531         1.741478
 O         3.342161        -1.316999         2.417105
 C         0.914575        -0.934753         1.635137
 C         0.857413        -0.272716         0.284975
 C         2.394944        -0.447702         0.177515
 O         3.454587        -0.860182        -0.601937
 H         2.742051         1.717553        -1.248775
 H         1.057406         2.167135        -1.124929
 H         2.443338         2.956088        -0.254686
 H         3.395469         1.527568         1.838881
 H         1.616674         1.441250         2.727095
 H         4.067933        -0.719861         2.684837
 H         0.765475        -2.044119         1.491349
 H         0.244952        -0.484275         2.431210
 H         0.122840        -0.091239        -0.451684
 H         3.384865        -1.794781        -0.986601
