19
Iteration:  3145
 C         1.982472         2.151698        -0.612693
 C         1.802169         0.906876         0.385546
 C         2.284650         1.105017         1.855617
 C         2.377290        -0.514143         1.786642
 O         3.334104        -1.288028         2.465683
 C         0.903132        -1.095557         1.615439
 C         0.950858        -0.443565         0.156802
 C         2.413103        -0.442870         0.248481
 O         3.570742        -0.758931        -0.538436
 H         3.063501         2.314969        -0.925969
 H         1.379043         2.062932        -1.507109
 H         1.762358         3.031956        -0.005275
 H         3.333670         1.455179         1.761236
 H         1.665914         1.549592         2.615338
 H         3.144437        -1.370480         3.402501
 H         1.061127        -2.216432         1.571920
 H         0.157648        -0.769424         2.295582
 H         0.460705        -0.541450        -0.800615
 H         3.700657        -1.754152        -0.722365
