19
Iteration:  2974charge 0 multiplicity 1
 C         1.958365         2.095442        -0.583743
 C         1.747219         0.972494         0.406280
 C         2.309299         1.029881         1.888432
 C         2.380160        -0.469162         1.780717
 O         3.248058        -1.340756         2.373743
 C         0.975693        -1.058927         1.578042
 C         0.992310        -0.402398         0.127007
 C         2.483504        -0.329656         0.280394
 O         3.509732        -0.890113        -0.541688
 H         3.034692         2.207924        -0.564207
 H         1.592793         1.666896        -1.519127
 H         1.231552         2.879442        -0.505486
 H         3.296027         1.570666         1.921262
 H         1.659415         1.415781         2.774312
 H         3.590851        -0.953451         3.217330
 H         1.302141        -2.152631         1.561643
 H         0.209735        -0.819216         2.372592
 H         0.261658        -0.225857        -0.647429
 H         4.301101        -0.935918         0.093298
