19
Iteration:  3697charge 0 multiplicity 1
 C         1.944592         2.071712        -0.522858
 C         1.820613         0.896955         0.397581
 C         2.278642         0.944023         1.806760
 C         2.395630        -0.579468         1.749183
 O         3.301401        -1.153103         2.549118
 C         0.870769        -1.013541         1.542427
 C         0.984869        -0.445619         0.211678
 C         2.562250        -0.400545         0.211066
 O         3.551589        -0.739787        -0.616409
 H         2.591950         2.827948        -0.091373
 H         2.354422         1.625703        -1.474063
 H         1.034305         2.653359        -0.789936
 H         3.302545         1.354179         1.623959
 H         1.607611         1.341221         2.578732
 H         2.872155        -1.329894         3.419563
 H         0.682660        -2.132371         1.692738
 H         0.185495        -0.527675         2.187184
 H         0.308707        -0.512767        -0.582084
 H         3.900102        -1.671635        -0.489572
