19
Iteration:  1114charge 0 multiplicity 1
 C         1.975576         1.964730        -0.674382
 C         1.875120         0.890172         0.394699
 C         2.426819         0.995561         1.875146
 C         2.513547        -0.539962         1.879107
 O         3.419397        -1.286187         2.599909
 C         0.885386        -0.855257         1.765764
 C         0.889433        -0.243676         0.321124
 C         2.466759        -0.547828         0.282796
 O         3.245269        -0.810105        -0.911170
 H         2.286186         1.677395        -1.667317
 H         1.022192         2.389570        -0.990785
 H         2.537023         2.821399        -0.404846
 H         3.465918         1.466318         1.823519
 H         1.842530         1.538758         2.724832
 H         4.238059        -1.283496         2.131086
 H         0.526287        -1.935562         1.910906
 H         0.166670        -0.193582         2.331477
 H         0.045536        -0.205767        -0.412294
 H         3.610291        -1.684985        -0.842205
