19
Iteration:  2729charge 0 multiplicity 1
 C         1.835061         2.018122        -0.532018
 C         1.950081         0.961914         0.446561
 C         2.227876         0.998277         1.882114
 C         2.437341        -0.498145         1.758317
 O         3.217162        -1.241643         2.780176
 C         1.006723        -1.018013         1.511513
 C         1.008714        -0.357114         0.179258
 C         2.596774        -0.362589         0.120131
 O         3.554113        -0.828771        -0.752372
 H         2.455321         2.821909        -0.226358
 H         2.092322         1.776763        -1.539682
 H         0.874360         2.457818        -0.395710
 H         3.175843         1.529250         2.052239
 H         1.333170         1.331051         2.477984
 H         3.231720        -2.177795         2.538974
 H         0.716841        -2.128584         1.529406
 H         0.353456        -0.518444         2.189554
 H         0.169341        -0.189644        -0.584616
 H         3.289413        -1.660992        -1.119112
