19
Iteration:  3040charge 0 multiplicity 1
 C         1.812208         2.078226        -0.529119
 C         1.948211         0.989157         0.416937
 C         2.327970         0.984646         1.869429
 C         2.382684        -0.540784         1.788775
 O         3.133845        -1.280078         2.776263
 C         0.999390        -1.046422         1.563147
 C         1.024951        -0.347846         0.178433
 C         2.627607        -0.341284         0.130507
 O         3.508306        -0.885400        -0.784790
 H         2.286645         2.999798        -0.183756
 H         2.275001         1.935539        -1.526021
 H         0.779991         2.240266        -0.855167
 H         3.318551         1.452275         2.104225
 H         1.634426         1.377340         2.686473
 H         3.981782        -0.829405         2.887770
 H         0.944517        -2.165797         1.520391
 H         0.246235        -0.774725         2.376640
 H         0.515102        -0.400402        -0.729613
 H         3.038840        -1.480666        -1.403975
