19
Iteration:  3509
 C         1.871603         1.999428        -0.710781
 C         1.872921         0.979792         0.443327
 C         2.275945         1.016308         1.912675
 C         2.428318        -0.605542         1.802071
 O         3.190124        -1.218938         2.770448
 C         1.008868        -1.102969         1.506172
 C         1.111210        -0.305839         0.250851
 C         2.578803        -0.323608         0.209524
 O         3.363167        -0.862487        -0.786535
 H         2.546105         2.763122        -0.420915
 H         2.112961         1.633115        -1.706016
 H         0.878201         2.417169        -0.858111
 H         3.295208         1.447477         1.935562
 H         1.679744         1.568275         2.690645
 H         4.032372        -0.731536         2.856872
 H         0.651738        -2.124711         1.317520
 H         0.313034        -0.780819         2.235650
 H         0.453747        -0.447053        -0.626591
 H         4.174796        -1.317458        -0.376768
