19
Iteration:  3039charge 0 multiplicity 1
 C         1.810910         2.067082        -0.525481
 C         1.956368         0.981563         0.416628
 C         2.322641         0.990088         1.866512
 C         2.377888        -0.546722         1.785531
 O         3.138876        -1.277353         2.769230
 C         1.001028        -1.036945         1.566858
 C         1.016463        -0.341072         0.183641
 C         2.621132        -0.341696         0.121355
 O         3.515332        -0.882811        -0.778413
 H         2.288938         3.008151        -0.179324
 H         2.300694         1.934032        -1.499749
 H         0.784387         2.268864        -0.833121
 H         3.310799         1.434988         2.143687
 H         1.627074         1.357339         2.659331
 H         3.963850        -0.802019         2.886495
 H         0.906779        -2.183343         1.507067
 H         0.289889        -0.788228         2.383757
 H         0.519442        -0.414338        -0.741737
 H         3.035562        -1.505121        -1.402518
