19
Iteration:  2071
 C         1.962081         2.117543        -0.559042
 C         2.001280         0.964277         0.388903
 C         2.447232         0.942393         1.815763
 C         2.428611        -0.621803         1.801710
 O         3.374469        -1.279299         2.639662
 C         0.843256        -1.000333         1.674844
 C         0.965730        -0.288870         0.284050
 C         2.420233        -0.454887         0.163490
 O         3.242777        -0.844178        -0.801353
 H         1.779702         3.094646        -0.066762
 H         3.001876         2.421238        -0.962771
 H         1.268779         1.981077        -1.494854
 H         3.501838         1.332531         1.854532
 H         1.891838         1.518828         2.515777
 H         3.972713        -0.563152         3.002076
 H         0.772733        -2.085094         1.589789
 H         0.132086        -0.576344         2.415448
 H         0.286953        -0.222057        -0.559867
 H         3.458486        -1.815540        -0.791741
