19
Iteration:  2626
 C         1.830484         2.201354        -0.559112
 C         1.915284         0.947437         0.344513
 C         2.281434         0.997148         1.859204
 C         2.382488        -0.525541         1.804570
 O         3.341264        -1.264915         2.631655
 C         0.930153        -1.088779         1.481555
 C         0.998186        -0.437243         0.089949
 C         2.513888        -0.392451         0.251760
 O         3.529607        -0.811802        -0.450361
 H         2.722471         2.293142        -1.109695
 H         1.022123         2.032820        -1.248973
 H         1.653519         3.150357        -0.068566
 H         3.308134         1.389096         2.073796
 H         1.555299         1.514920         2.542669
 H         3.575004        -2.061469         2.118852
 H         0.751160        -2.118287         1.394224
 H         0.150032        -0.504454         2.109171
 H         0.528168        -0.667572        -0.846135
 H         3.355110        -1.204233        -1.365664
