19
Iteration:  1466charge 0 multiplicity 1
 C         1.920025         2.001430        -0.751176
 C         1.914822         0.969074         0.421869
 C         2.503939         0.945046         1.808130
 C         2.428808        -0.534476         1.796880
 O         3.372330        -1.392342         2.486852
 C         0.916769        -0.804897         1.859865
 C         0.930284        -0.290075         0.401258
 C         2.355531        -0.551896         0.236555
 O         3.321899        -0.727582        -0.749507
 H         1.953954         2.955124        -0.245782
 H         2.839774         1.853346        -1.299502
 H         0.989959         1.842009        -1.299102
 H         3.645334         1.123319         1.797156
 H         2.052540         1.408177         2.654153
 H         4.219545        -1.272775         2.068172
 H         0.664141        -1.825491         1.993415
 H         0.463536        -0.185494         2.583527
 H         0.092559        -0.212162        -0.289103
 H         3.094391        -1.560568        -1.285542
