19
Iteration:  3045charge 0 multiplicity 1
 C         1.811218         2.136051        -0.569376
 C         1.911532         1.001225         0.410014
 C         2.346261         0.972128         1.900004
 C         2.426022        -0.523825         1.813604
 O         3.108014        -1.288081         2.801898
 C         0.975919        -1.080067         1.548280
 C         1.097219        -0.370449         0.171168
 C         2.632225        -0.349976         0.183922
 O         3.480893        -0.887176        -0.807923
 H         2.262266         3.055913        -0.169393
 H         2.219609         1.884270        -1.571109
 H         0.740140         2.200245        -0.868679
 H         3.323471         1.481774         1.878041
 H         1.720544         1.417876         2.672172
 H         4.030105        -0.966293         2.883529
 H         1.135354        -2.155614         1.537231
 H         0.159196        -0.727996         2.199938
 H         0.385794        -0.358602        -0.740010
 H         2.967764        -1.434080        -1.455252
