19
Iteration:  4642charge 0 multiplicity 1
 C         2.001697         2.131013        -0.466312
 C         1.815709         0.871009         0.329850
 C         2.091172         1.042471         1.899973
 C         2.367305        -0.546657         1.789193
 O         3.327863        -1.254659         2.524554
 C         0.895816        -1.029731         1.589771
 C         1.067527        -0.486802         0.152766
 C         2.592357        -0.381085         0.248209
 O         3.511960        -0.757596        -0.619834
 H         1.176289         2.606953        -1.058696
 H         2.380069         2.900986         0.212802
 H         2.741204         2.046764        -1.276129
 H         3.089409         1.473446         1.910551
 H         1.316857         1.469154         2.594941
 H         3.975865        -1.541262         1.832792
 H         0.679174        -2.097636         1.706544
 H         0.268217        -0.504215         2.312833
 H         0.469530        -0.676710        -0.683756
 H         3.259573        -1.664465        -0.791415
