19
Iteration:  1322
 C         1.830376         1.969970        -0.707142
 C         1.989708         0.975974         0.432448
 C         2.534954         1.080616         1.827974
 C         2.442410        -0.524528         1.821392
 O         3.194161        -1.388485         2.672531
 C         0.947706        -0.930784         1.767971
 C         0.993328        -0.326959         0.390682
 C         2.487595        -0.386039         0.178746
 O         3.311860        -0.793356        -0.906694
 H         2.292026         1.397412        -1.532660
 H         0.778085         2.174951        -0.936719
 H         2.476102         2.808865        -0.456754
 H         3.628814         1.479515         1.839977
 H         1.925759         1.513901         2.576535
 H         4.137515        -1.060187         2.590897
 H         1.002625        -2.016469         1.711936
 H         0.401647        -0.666285         2.622560
 H         0.161882        -0.275683        -0.345699
 H         3.149439        -1.725817        -1.114388
