19
Iteration:  2190charge 0 multiplicity 1
 C         1.941017         2.265063        -0.648034
 C         1.925775         0.968544         0.324066
 C         2.393383         1.075622         1.847955
 C         2.410829        -0.531420         1.821627
 O         3.282507        -1.448838         2.490171
 C         0.932875        -0.958977         1.709625
 C         0.959942        -0.495456         0.347478
 C         2.453307        -0.427729         0.241067
 O         3.408829        -0.845236        -0.659007
 H         2.790934         2.114329        -1.238245
 H         1.141727         2.270106        -1.397732
 H         1.914974         3.247064        -0.146640
 H         3.317900         1.692797         1.797779
 H         1.715268         1.718264         2.617462
 H         4.206104        -1.269006         2.293546
 H         0.632712        -2.010852         1.718702
 H         0.159198        -0.404848         2.355175
 H         0.249538        -0.541431        -0.438591
 H         3.373828        -1.850338        -0.829001
