19
Iteration:  1991
 C         1.799126         2.055017        -0.573604
 C         1.993706         0.964198         0.442232
 C         2.538117         1.086655         1.862055
 C         2.412467        -0.555850         1.827901
 O         3.228197        -1.426445         2.492959
 C         0.883613        -0.855457         1.707913
 C         1.012915        -0.317402         0.302529
 C         2.543096        -0.363406         0.235455
 O         3.377163        -0.933558        -0.757881
 H         0.759364         1.994341        -1.002785
 H         1.963616         3.105361        -0.221671
 H         2.454796         1.928809        -1.516998
 H         3.535807         1.383250         1.942590
 H         1.815311         1.578793         2.567620
 H         4.120773        -1.462019         2.061351
 H         0.657699        -1.932661         1.830478
 H         0.228000        -0.257143         2.434083
 H         0.314542        -0.009319        -0.490658
 H         3.040002        -1.724191        -1.261233
