19
Iteration:  3037charge 0 multiplicity 1
 C         1.808976         2.049964        -0.521171
 C         1.972813         0.962355         0.413683
 C         2.311633         1.000707         1.864037
 C         2.374340        -0.560339         1.780403
 O         3.147225        -1.271403         2.752838
 C         1.000834        -1.022587         1.572906
 C         1.006717        -0.325102         0.197975
 C         2.602672        -0.345281         0.107124
 O         3.528735        -0.878047        -0.767039
 H         2.282190         3.016436        -0.165852
 H         2.362363         1.914117        -1.448835
 H         0.781480         2.335649        -0.777923
 H         3.288237         1.394034         2.205228
 H         1.603065         1.319430         2.592430
 H         3.945402        -0.736051         2.887006
 H         0.844953        -2.177996         1.473160
 H         0.370166        -0.800372         2.391929
 H         0.496026        -0.444771        -0.783304
 H         3.047204        -1.530302        -1.369258
