19
Iteration:  1507charge 0 multiplicity 1
 C         1.934134         2.017035        -0.614996
 C         1.868006         0.949560         0.443409
 C         2.568664         1.034163         1.745061
 C         2.522378        -0.583668         1.804132
 O         3.254024        -1.416884         2.553618
 C         1.076152        -0.859160         1.804057
 C         0.897078        -0.209412         0.421882
 C         2.382834        -0.496684         0.192209
 O         3.186255        -0.825779        -0.864832
 H         1.167910         2.768291        -0.707325
 H         2.901761         2.539165        -0.593126
 H         1.877899         1.588768        -1.619277
 H         3.610300         1.424087         1.641613
 H         2.055454         1.647582         2.511826
 H         4.177747        -1.050387         2.691364
 H         1.070299        -2.000475         1.665877
 H         0.295972        -0.460786         2.644315
 H        -0.007852        -0.117320        -0.279874
 H         3.571881        -1.666834        -0.773837
