19
Iteration:  4176charge 0 multiplicity 1
 C         1.875644         2.247452        -0.350641
 C         1.898589         0.912974         0.374277
 C         2.047577         0.954921         1.866810
 C         2.354996        -0.529201         1.902439
 O         3.209829        -1.231103         2.860736
 C         0.970029        -1.112993         1.486916
 C         1.132764        -0.542782         0.050967
 C         2.647154        -0.375968         0.094825
 O         3.626404        -0.792633        -0.940486
 H         2.475954         2.950669         0.264913
 H         2.476995         2.110559        -1.329858
 H         0.795305         2.701074        -0.532882
 H         2.797395         1.614106         2.248456
 H         1.131869         1.258217         2.309494
 H         3.535239        -0.476080         3.404221
 H         1.093124        -2.189848         1.320709
 H         0.045152        -0.820893         2.018486
 H         0.515051        -0.632952        -0.757793
 H         3.413015        -1.773633        -1.027402
