19
Iteration:  4548
 C         1.768301         2.158136        -0.468439
 C         1.944333         0.942273         0.377283
 C         2.268167         0.982454         1.845713
 C         2.425449        -0.594674         1.882317
 O         3.103662        -1.338271         2.782628
 C         0.967097        -1.026569         1.560189
 C         1.108882        -0.361728         0.213228
 C         2.661279        -0.424001         0.142054
 O         3.519953        -0.748815        -0.949138
 H         0.779557         2.552452        -0.513560
 H         2.498250         2.907535        -0.217151
 H         1.923887         1.704073        -1.477375
 H         3.236798         1.472479         2.054396
 H         1.424429         1.278670         2.528724
 H         3.705354        -0.730172         3.252946
 H         0.898597        -2.074334         1.359012
 H         0.044598        -0.749242         2.176087
 H         0.558824        -0.491539        -0.660340
 H         4.000906        -1.570794        -0.717598
