19
Iteration:  4944charge 0 multiplicity 1
 C         1.812306         2.139552        -0.530561
 C         1.975833         0.946451         0.363917
 C         2.365690         1.004226         1.921924
 C         2.367270        -0.617436         1.795416
 O         3.131868        -1.338636         2.714079
 C         0.912413        -1.070068         1.466733
 C         1.107355        -0.300145         0.155654
 C         2.563992        -0.427168         0.186658
 O         3.475474        -0.841736        -0.761969
 H         0.846558         2.498000        -0.115015
 H         2.631435         2.893752        -0.386153
 H         1.593952         1.802277        -1.559644
 H         3.443103         1.411511         2.173420
 H         1.775233         1.294703         2.782013
 H         3.745932        -0.735069         3.204742
 H         0.967644        -2.170233         1.297539
 H         0.142193        -0.802311         2.173539
 H         0.430655        -0.242200        -0.712493
 H         4.213320        -0.164830        -0.660643
