19
Iteration:  4794charge 0 multiplicity 1
 C         1.869123         2.092304        -0.645183
 C         1.890714         0.971112         0.425078
 C         2.233836         0.922961         1.989908
 C         2.401824        -0.593462         1.765649
 O         3.228287        -1.186876         2.707516
 C         1.009654        -1.122474         1.478512
 C         1.060471        -0.387207         0.153305
 C         2.591560        -0.352909         0.247600
 O         3.452851        -0.720556        -0.746922
 H         1.260426         2.969255        -0.316739
 H         2.882838         2.450270        -0.898235
 H         1.497379         1.617157        -1.548687
 H         3.231553         1.370539         2.273500
 H         1.528017         1.318986         2.781363
 H         2.978908        -2.137787         2.626320
 H         1.027308        -2.271595         1.306445
 H         0.167997        -0.824085         2.133981
 H         0.342410        -0.337459        -0.599531
 H         4.269951        -0.973293        -0.352684
