19
Iteration:  1280
 C         1.862862         1.927061        -0.749530
 C         1.857189         0.973855         0.431068
 C         2.463072         1.090750         1.852690
 C         2.452226        -0.598783         1.856898
 O         3.383356        -1.428007         2.585293
 C         0.893290        -0.912867         1.758453
 C         0.941611        -0.220275         0.353438
 C         2.475195        -0.398021         0.261944
 O         3.378193        -0.776057        -0.806002
 H         1.356388         1.385972        -1.593765
 H         1.379270         2.935418        -0.695933
 H         2.894752         2.172174        -1.106345
 H         3.548437         1.375453         1.925449
 H         1.837167         1.656761         2.515053
 H         4.270777        -1.090752         2.412809
 H         0.599780        -1.971882         1.688732
 H        -0.011898        -0.478885         2.429305
 H         0.174983        -0.273428        -0.470057
 H         3.192193        -1.769232        -0.993373
