19
Iteration:  2512
 C         1.902913         2.183893        -0.507124
 C         1.969221         0.912719         0.342253
 C         2.328061         0.906820         1.801477
 C         2.376524        -0.635709         1.874197
 O         3.168803        -1.226357         2.937819
 C         1.010017        -1.107873         1.536423
 C         1.006452        -0.320519         0.199109
 C         2.544781        -0.439249         0.076238
 O         3.458395        -0.738556        -0.891152
 H         2.128574         3.128147         0.131336
 H         2.496768         2.198491        -1.458947
 H         0.842587         2.173751        -0.882830
 H         3.448472         1.099276         1.962686
 H         1.783134         1.537432         2.555856
 H         3.701098        -0.423849         3.172583
 H         0.955841        -2.180791         1.070094
 H         0.180990        -0.814132         2.362570
 H         0.222879        -0.568279        -0.536825
 H         3.319992        -1.695284        -1.237254
