19
Iteration:  1808charge 0 multiplicity 1
 C         1.821467         2.121820        -0.526298
 C         2.014367         0.897488         0.378427
 C         2.542861         0.973292         1.818413
 C         2.445543        -0.524726         1.762847
 O         3.251210        -1.374541         2.466339
 C         0.880155        -0.780610         1.778500
 C         0.900420        -0.214827         0.381675
 C         2.464435        -0.524031         0.186106
 O         3.416552        -0.962052        -0.770022
 H         2.668710         2.490818        -1.048623
 H         1.053204         1.845515        -1.206878
 H         1.397587         2.920925         0.079935
 H         3.662528         1.309652         1.736304
 H         1.982756         1.631891         2.487657
 H         4.200981        -1.121847         2.312991
 H         0.636673        -1.830061         1.632761
 H         0.293661        -0.300879         2.608711
 H         0.061030        -0.074869        -0.250217
 H         3.298201        -1.858836        -1.098940
