19
Iteration:  4239charge 0 multiplicity 1
 C         1.659666         2.079991        -0.594115
 C         1.875423         1.002827         0.456125
 C         2.200978         1.026360         1.937571
 C         2.324422        -0.577928         1.877952
 O         3.106107        -1.327764         2.769278
 C         0.955751        -1.123362         1.399571
 C         1.191532        -0.368223         0.124546
 C         2.675881        -0.322015         0.220722
 O         3.747845        -0.710893        -0.720846
 H         2.583967         2.362006        -1.134161
 H         1.028143         1.670937        -1.373245
 H         1.240376         3.066434        -0.334325
 H         3.199521         1.386839         2.167706
 H         1.466306         1.505034         2.658304
 H         3.701280        -1.886722         2.250614
 H         1.084488        -2.136482         1.191176
 H         0.051745        -0.983168         2.119349
 H         0.580418        -0.258016        -0.688369
 H         3.575184        -1.694070        -0.935020
