19
Iteration:  4950charge 0 multiplicity 1
 C         1.831744         2.160915        -0.534573
 C         2.001224         0.987428         0.358422
 C         2.413397         0.936740         1.890962
 C         2.385386        -0.610534         1.788416
 O         3.135711        -1.313041         2.753292
 C         0.922526        -1.130550         1.437334
 C         1.078266        -0.331804         0.151895
 C         2.522718        -0.401237         0.194314
 O         3.454955        -0.829850        -0.718582
 H         0.976026         2.768689        -0.180981
 H         2.674957         2.824290        -0.464023
 H         1.544540         1.837097        -1.539467
 H         3.386150         1.243410         2.092080
 H         1.611286         1.258520         2.645035
 H         3.779359        -0.665402         3.114104
 H         0.965879        -2.206203         1.323809
 H         0.086613        -0.909437         2.188896
 H         0.421049        -0.205035        -0.672043
 H         4.008291         0.012758        -0.751727
