19
Iteration:  1824charge 0 multiplicity 1
 C         1.850910         2.089799        -0.562984
 C         2.090499         0.944299         0.324174
 C         2.531432         0.992387         1.756807
 C         2.432361        -0.617910         1.756188
 O         3.283046        -1.413268         2.502725
 C         0.878926        -0.794884         1.850744
 C         0.957580        -0.310542         0.339555
 C         2.372742        -0.447423         0.177232
 O         3.348012        -0.824731        -0.713613
 H         2.754889         2.194956        -1.258815
 H         0.937754         2.151086        -1.251048
 H         1.743951         3.046552        -0.001860
 H         3.430274         1.395215         2.029901
 H         1.802226         1.223575         2.530848
 H         4.134624        -1.448039         1.972280
 H         0.654195        -1.813517         2.284756
 H         0.367405        -0.058139         2.471031
 H         0.222387        -0.306914        -0.537956
 H         3.251608        -1.833077        -0.814523
