19
Iteration:  4242charge 0 multiplicity 1
 C         1.670224         2.053446        -0.583816
 C         1.878201         1.004468         0.450766
 C         2.189826         1.008495         1.927590
 C         2.333442        -0.586932         1.862509
 O         3.100406        -1.328720         2.729949
 C         0.948621        -1.088326         1.415005
 C         1.187846        -0.357597         0.145184
 C         2.686154        -0.317858         0.229029
 O         3.747462        -0.700886        -0.698352
 H         2.564134         2.319170        -1.173955
 H         0.946781         1.648979        -1.422649
 H         1.238135         3.124308        -0.340167
 H         3.128677         1.431362         2.243499
 H         1.469012         1.374742         2.606555
 H         3.661237        -1.933758         2.218816
 H         1.157109        -2.150566         1.298959
 H         0.133101        -0.873825         2.138641
 H         0.568551        -0.369171        -0.785267
 H         3.614220        -1.658838        -0.879896
