19
Iteration:   806charge 0 multiplicity 1
 C         1.747565         2.203541        -0.588856
 C         1.928676         1.008092         0.327909
 C         2.497676         1.005949         1.740625
 C         2.519011        -0.494643         1.809025
 O         3.206281        -1.244216         2.723665
 C         1.030473        -1.010276         1.702151
 C         1.039277        -0.392802         0.298576
 C         2.476628        -0.464115         0.125598
 O         3.379074        -1.037697        -0.746100
 H         1.416023         3.042506         0.097010
 H         2.677158         2.571228        -1.092093
 H         0.892393         2.010589        -1.378830
 H         3.491625         1.244500         1.810307
 H         1.979695         1.583325         2.550077
 H         3.832341        -0.604602         3.054705
 H         1.097512        -2.145880         1.568979
 H         0.227186        -0.856632         2.424778
 H         0.132379        -0.302853        -0.411417
 H         2.790652        -1.293673        -1.489053
