19
Iteration:  2653charge 0 multiplicity 1
 C         1.842499         2.203913        -0.447689
 C         1.869695         0.891308         0.357055
 C         2.164461         1.026747         1.918327
 C         2.397165        -0.529428         1.747926
 O         3.206666        -1.126797         2.677114
 C         0.947435        -1.111499         1.571065
 C         1.003829        -0.359109         0.202727
 C         2.655881        -0.413406         0.179035
 O         3.666861        -0.959833        -0.740315
 H         2.877715         2.215901        -0.957778
 H         1.013395         2.172904        -1.196311
 H         1.806881         3.147473         0.124295
 H         3.114807         1.529329         2.121097
 H         1.280414         1.402489         2.468548
 H         3.357064        -2.091363         2.573489
 H         0.726826        -2.228181         1.420721
 H         0.367075        -0.635898         2.299732
 H         0.401060        -0.595744        -0.729110
 H         3.287531        -1.013922        -1.694628
