19
Iteration:  1053charge 0 multiplicity 1
 C         1.837341         2.130920        -0.621810
 C         1.943356         0.981607         0.385637
 C         2.501437         1.056833         1.773973
 C         2.517480        -0.529433         1.812266
 O         3.397244        -1.321592         2.545812
 C         0.970020        -0.898104         1.722987
 C         0.931198        -0.275340         0.261049
 C         2.435494        -0.426772         0.195140
 O         3.238827        -1.070073        -0.673366
 H         2.529714         1.822526        -1.447699
 H         0.744865         2.103616        -0.790785
 H         2.111309         3.102327        -0.149281
 H         3.445843         1.491636         1.874824
 H         1.899699         1.495368         2.521313
 H         4.021477        -0.833148         3.055508
 H         0.868171        -1.952029         1.756303
 H         0.271028        -0.437461         2.446256
 H         0.234404        -0.408652        -0.505774
 H         2.832532        -1.585679        -1.318609
