19
Iteration:  4158charge 0 multiplicity 1
 C         1.902782         2.191009        -0.486900
 C         1.936538         0.904847         0.340171
 C         2.062108         0.961017         1.862302
 C         2.351891        -0.599757         1.863962
 O         3.266636        -1.210058         2.715841
 C         0.963002        -1.148924         1.429733
 C         1.158557        -0.430828         0.118177
 C         2.639515        -0.426051         0.264175
 O         3.489607        -0.683308        -0.785946
 H         2.271285         2.976948         0.145478
 H         2.516139         2.192110        -1.368461
 H         0.908051         2.321868        -0.736976
 H         3.022190         1.530305         2.181419
 H         1.158971         1.233439         2.515949
 H         3.066006        -1.016049         3.656809
 H         0.874056        -2.319031         1.428816
 H         0.199703        -0.800597         2.109057
 H         0.692559        -0.589350        -0.917263
 H         3.795529        -1.629414        -0.844763
