19
Iteration:  2984
 C         1.959916         2.074985        -0.577353
 C         1.742133         0.992601         0.470041
 C         2.291403         1.043117         1.856493
 C         2.380422        -0.503312         1.726035
 O         3.285034        -1.319318         2.402238
 C         0.934409        -1.060989         1.540910
 C         1.051315        -0.447496         0.210318
 C         2.498262        -0.332123         0.221898
 O         3.458072        -0.850955        -0.526248
 H         2.922962         2.618910        -0.476328
 H         1.981281         1.676328        -1.585624
 H         1.344558         2.927956        -0.413459
 H         3.344615         1.412531         1.779923
 H         1.769064         1.368766         2.797576
 H         3.639602        -0.792201         3.137339
 H         0.819267        -2.223440         1.547662
 H         0.147516        -0.591926         2.152252
 H         0.439981        -0.629062        -0.687633
 H         4.169414        -1.231359         0.098121
