19
Iteration:  1603charge 0 multiplicity 1
 C         1.864794         2.302562        -0.501636
 C         1.925276         0.995479         0.354411
 C         2.608788         1.006654         1.777042
 C         2.523946        -0.512601         1.709282
 O         3.277620        -1.358886         2.586126
 C         0.997903        -0.925649         1.795781
 C         0.900077        -0.242367         0.378503
 C         2.420937        -0.468069         0.109437
 O         3.247884        -1.166245        -0.751040
 H         0.832357         2.741393        -0.697810
 H         2.299468         3.159459         0.135265
 H         2.229307         2.441662        -1.549080
 H         3.555480         1.439613         1.508010
 H         2.001142         1.720740         2.492929
 H         4.250021        -1.296778         2.324694
 H         1.122676        -2.017704         1.770119
 H         0.446139        -0.635433         2.611217
 H         0.088212        -0.286833        -0.429540
 H         2.633442        -1.734866        -1.245800
