19
Iteration:  2715charge 0 multiplicity 1
 C         1.817025         2.127842        -0.544180
 C         1.901064         0.920224         0.362939
 C         2.294322         1.015966         1.926664
 C         2.406957        -0.536868         1.876983
 O         3.151259        -1.186739         2.791910
 C         1.018384        -1.072042         1.508316
 C         1.131986        -0.381482         0.156059
 C         2.609274        -0.365041         0.171628
 O         3.511570        -0.860367        -0.795846
 H         2.731021         2.672538        -0.503613
 H         1.824475         1.796631        -1.581521
 H         0.927865         2.772623        -0.426475
 H         3.232751         1.536460         2.129464
 H         1.591240         1.429366         2.696500
 H         3.206115        -2.139153         2.522481
 H         1.154770        -2.166832         1.403908
 H         0.090579        -0.982211         2.228276
 H         0.348493        -0.345071        -0.639019
 H         2.918375        -1.299576        -1.506119
