19
Iteration:  3842charge 0 multiplicity 1
 C         1.893720         2.157054        -0.440915
 C         1.905238         0.878213         0.337450
 C         2.203029         0.928377         1.865263
 C         2.340174        -0.518943         1.798486
 O         3.241771        -1.036743         2.724905
 C         0.956333        -1.167538         1.439276
 C         1.114509        -0.428589         0.133078
 C         2.600029        -0.401289         0.201415
 O         3.526889        -0.814540        -0.733864
 H         2.887478         2.675413        -0.439851
 H         1.417019         2.120972        -1.447962
 H         1.367147         2.923563         0.204497
 H         3.179756         1.491379         2.053918
 H         1.305407         1.244919         2.434768
 H         2.697938        -1.497666         3.370459
 H         1.330347        -2.183554         1.184930
 H         0.037128        -1.174176         2.097575
 H         0.555763        -0.552917        -0.838042
 H         3.545624        -1.767727        -0.734846
