19
Iteration:  2034
 C         1.938895         2.036196        -0.636200
 C         1.931462         1.021710         0.452366
 C         2.422194         1.045413         1.853633
 C         2.470342        -0.528919         1.740679
 O         3.296979        -1.431064         2.484501
 C         0.965894        -0.937268         1.721867
 C         0.921446        -0.269618         0.323743
 C         2.381612        -0.356357         0.143101
 O         3.377253        -0.870542        -0.652083
 H         1.010712         2.540979        -0.771211
 H         2.879872         2.512207        -0.433355
 H         2.225828         1.543885        -1.533427
 H         3.355511         1.549772         1.897595
 H         1.690943         1.428139         2.660318
 H         4.208876        -1.440728         2.153394
 H         0.835221        -2.046973         1.740492
 H         0.254907        -0.559748         2.555187
 H         0.013087        -0.038782        -0.247871
 H         3.123352        -1.779518        -0.777177
