19
Iteration:  2381
 C         1.880851         2.236950        -0.692123
 C         1.954787         0.999298         0.342521
 C         2.253209         0.986502         1.875509
 C         2.459496        -0.542286         1.727975
 O         3.296026        -1.460512         2.436219
 C         0.923278        -0.967437         1.706670
 C         0.947968        -0.347253         0.298261
 C         2.543409        -0.388138         0.236299
 O         3.445707        -0.896825        -0.575942
 H         0.919116         2.602821        -1.128701
 H         2.372846         2.980335        -0.069129
 H         2.567857         2.091105        -1.492622
 H         3.091350         1.795162         2.104390
 H         1.327050         1.185432         2.480982
 H         4.155895        -0.959922         2.553289
 H         0.697481        -2.034133         1.485211
 H         0.217244        -0.609227         2.493925
 H         0.158986        -0.520550        -0.372082
 H         3.839425        -1.537702        -0.013350
