19
Iteration:  2923charge 0 multiplicity 1
 C         1.811191         2.070138        -0.560825
 C         1.952337         0.996446         0.414198
 C         2.236090         0.934905         1.999686
 C         2.353241        -0.547003         1.846313
 O         3.297405        -1.218836         2.651707
 C         0.927022        -0.953519         1.469353
 C         1.122778        -0.363472         0.131521
 C         2.592821        -0.400470         0.187844
 O         3.469260        -0.957085        -0.788605
 H         2.732598         2.254773        -1.152544
 H         0.933843         1.930937        -1.290631
 H         1.454344         3.012153         0.045142
 H         3.219752         1.286697         2.237047
 H         1.595808         1.317961         2.804023
 H         2.912387        -1.517266         3.484758
 H         0.751508        -1.975817         1.477024
 H         0.071903        -0.475525         2.055686
 H         0.648918        -0.537589        -0.784240
 H         4.243353        -0.315581        -0.795510
