19
Iteration:  2786
 C         1.878898         2.016899        -0.562239
 C         1.786840         0.965644         0.459600
 C         2.410149         1.007832         1.844031
 C         2.388763        -0.466715         1.750817
 O         3.266440        -1.266116         2.509273
 C         0.981590        -1.041417         1.566979
 C         0.977747        -0.325034         0.163528
 C         2.408008        -0.398665         0.166361
 O         3.543092        -0.834750        -0.547523
 H         2.401667         2.855815         0.031617
 H         2.525733         1.830340        -1.431211
 H         0.947764         2.339936        -0.997766
 H         3.386189         1.556379         1.956522
 H         1.700762         1.396903         2.620408
 H         2.811259        -2.126338         2.654917
 H         1.030421        -2.181886         1.277591
 H         0.258758        -0.822712         2.313798
 H         0.348412        -0.435578        -0.666593
 H         4.421115        -0.879913        -0.064564
