19
Iteration:  4584charge 0 multiplicity 1
 C         1.704742         2.068055        -0.647194
 C         1.953791         0.984197         0.432316
 C         2.524631         0.871623         1.898977
 C         2.402389        -0.574540         1.766243
 O         3.044919        -1.340158         2.782967
 C         1.022121        -1.101224         1.439946
 C         1.094781        -0.266411         0.238438
 C         2.530863        -0.340940         0.203795
 O         3.462053        -0.663907        -0.719700
 H         0.664184         2.018106        -0.977948
 H         1.983742         3.142714        -0.624309
 H         2.392224         1.711927        -1.431946
 H         3.579175         1.408227         1.963116
 H         1.928674         1.329857         2.764080
 H         3.635513        -0.797628         3.315918
 H         1.334042        -2.145677         0.974015
 H         0.242122        -1.184902         2.226444
 H         0.453310        -0.431558        -0.698795
 H         3.639549        -1.651144        -0.753345
