19
Iteration:  1945charge 0 multiplicity 1
 C         1.883314         2.253127        -0.487449
 C         2.014907         0.960182         0.343194
 C         2.520354         1.056261         1.738115
 C         2.433025        -0.586955         1.776037
 O         3.233250        -1.345372         2.731591
 C         0.945206        -1.036624         1.742006
 C         0.957505        -0.276200         0.343836
 C         2.460284        -0.439506         0.129985
 O         3.297521        -0.972671        -0.933617
 H         1.291174         2.125168        -1.417686
 H         1.497607         3.096159         0.097439
 H         2.824017         2.668024        -0.881605
 H         3.569874         1.196771         1.581522
 H         2.026508         1.713244         2.546997
 H         3.900833        -0.715066         3.018265
 H         0.671168        -2.161492         1.625021
 H         0.357869        -0.522312         2.540785
 H         0.219162        -0.534130        -0.353278
 H         3.339667        -1.932571        -0.806323
