19
Iteration:   794
 C         1.753593         2.187670        -0.591207
 C         1.909376         0.913942         0.324781
 C         2.508001         1.006887         1.794837
 C         2.436231        -0.565232         1.740867
 O         3.288212        -1.215992         2.751552
 C         1.033051        -0.976872         1.628164
 C         0.935933        -0.289319         0.283826
 C         2.498015        -0.462805         0.195981
 O         3.375267        -1.034124        -0.716117
 H         1.700066         3.092222         0.081223
 H         2.698400         2.271684        -1.203981
 H         0.821935         2.338870        -1.319575
 H         3.343503         1.562250         1.687116
 H         1.797800         1.354505         2.573317
 H         4.126963        -0.767400         2.981787
 H         1.134438        -2.103063         1.462502
 H         0.433467        -0.639625         2.523277
 H         0.199391        -0.680358        -0.551789
 H         3.008331        -1.191066        -1.567846
