19
Iteration:  3118charge 0 multiplicity 1
 C         1.904992         2.100623        -0.529673
 C         1.930246         0.884674         0.398354
 C         2.270707         0.902421         1.862991
 C         2.396121        -0.612236         1.817603
 O         3.266035        -1.216836         2.695813
 C         0.849752        -1.002406         1.573612
 C         1.021486        -0.342186         0.176148
 C         2.564355        -0.437803         0.163462
 O         3.510132        -0.750669        -0.789573
 H         2.837092         2.616288        -0.673615
 H         1.399869         1.747758        -1.466242
 H         1.167681         2.848810        -0.141895
 H         3.308075         1.253196         1.773516
 H         1.581396         1.300328         2.707905
 H         3.664404        -0.560165         3.269846
 H         0.735565        -2.047596         1.360872
 H         0.143509        -0.442458         2.296618
 H         0.469900        -0.417230        -0.773630
 H         3.795123        -1.719672        -0.652388
