19
Iteration:   466
 C         1.723446         2.073195        -0.617666
 C         1.862410         0.975793         0.356856
 C         2.244604         0.997805         1.897435
 C         2.375538        -0.498888         1.887964
 O         3.197434        -1.154561         2.741736
 C         1.011392        -1.076530         1.535814
 C         1.150866        -0.511476         0.215830
 C         2.615525        -0.367370         0.140482
 O         3.503979        -0.887138        -0.742141
 H         1.440514         3.034276        -0.257013
 H         2.586443         2.219081        -1.216951
 H         0.920649         1.802642        -1.377005
 H         3.158054         1.498418         2.252220
 H         1.471946         1.311022         2.541231
 H         4.104720        -1.327842         2.414663
 H         1.023341        -2.266339         1.688232
 H         0.171901        -0.604251         2.230689
 H         0.575380        -0.719766        -0.737573
 H         4.286652        -0.375209        -0.773829
