19
Iteration:  3850charge 0 multiplicity 1
 C         1.852897         2.209198        -0.519956
 C         1.928838         0.921102         0.391425
 C         2.197754         0.929774         1.839860
 C         2.302359        -0.605329         1.814165
 O         3.252284        -1.095783         2.713701
 C         0.983239        -1.194051         1.441858
 C         1.107785        -0.406294         0.157505
 C         2.618275        -0.387412         0.247487
 O         3.499319        -0.796175        -0.697008
 H         2.933258         2.531235        -0.592439
 H         1.571324         2.129063        -1.663240
 H         1.136386         3.008753        -0.120933
 H         3.126813         1.499635         1.973995
 H         1.468941         1.414276         2.396883
 H         2.861812        -1.408129         3.535890
 H         1.096832        -2.346114         1.166953
 H         0.162684        -1.079643         2.072841
 H         0.667050        -0.360007        -0.897237
 H         3.830031        -1.697966        -0.850718
