19
Iteration:  1212charge 0 multiplicity 1
 C         1.771174         2.171825        -0.502959
 C         2.021056         0.956914         0.337595
 C         2.372057         0.952443         1.787023
 C         2.451143        -0.533209         1.854907
 O         3.411769        -1.206160         2.612656
 C         0.913385        -0.873109         1.642634
 C         1.024367        -0.274983         0.269716
 C         2.534270        -0.470812         0.173938
 O         3.259078        -1.126266        -0.820660
 H         0.812962         2.228065        -1.047491
 H         1.751348         3.077530         0.159120
 H         2.511075         2.511941        -1.226724
 H         3.354239         1.380618         2.146012
 H         1.650117         1.371587         2.389708
 H         4.103351        -0.604739         2.881392
 H         0.691529        -1.982906         1.720217
 H         0.356684        -0.336211         2.450869
 H         0.461658        -0.424357        -0.597198
 H         3.296460        -2.044924        -0.557345
