19
Iteration:   276
 C         1.817480         2.037462        -0.597406
 C         1.935626         0.974997         0.424034
 C         2.198599         1.132194         1.862875
 C         2.437397        -0.526431         1.805902
 O         3.322604        -1.241402         2.691344
 C         1.025819        -1.073711         1.537987
 C         0.973074        -0.374712         0.211954
 C         2.564715        -0.351162         0.181313
 O         3.478104        -1.014701        -0.660287
 H         0.794636         1.873555        -0.948485
 H         1.982456         3.090177        -0.341909
 H         2.350657         1.811673        -1.463310
 H         3.020664         1.695951         2.074903
 H         1.372850         1.413689         2.505769
 H         4.009421        -0.567621         2.852524
 H         1.029407        -2.109066         1.417386
 H         0.167983        -0.825144         2.246269
 H         0.312254        -0.561954        -0.649313
 H         3.493366        -0.540235        -1.547084
