19
Iteration:  2586
 C         1.800696         2.041969        -0.648008
 C         2.017330         0.981657         0.419691
 C         2.231593         0.982709         1.957919
 C         2.346291        -0.605121         1.772365
 O         3.223749        -1.299427         2.503906
 C         0.948964        -1.018465         1.522305
 C         0.964927        -0.273001         0.226270
 C         2.535127        -0.357258         0.214247
 O         3.640340        -0.776851        -0.498307
 H         2.804654         2.381238        -1.018795
 H         1.304980         1.529025        -1.484029
 H         1.215249         2.966998        -0.403009
 H         3.171751         1.441086         2.197916
 H         1.365097         1.372944         2.506906
 H         3.957277        -1.571820         1.907509
 H         0.939978        -2.150252         1.491073
 H         0.338145        -0.733797         2.319304
 H         0.287193        -0.369034        -0.611755
 H         3.427638        -1.651593        -0.808639
