19
Iteration:  1701charge 0 multiplicity 1
 C         2.052725         2.064365        -0.589004
 C         1.885416         0.993900         0.406487
 C         2.609726         0.999964         1.696576
 C         2.452980        -0.557957         1.828528
 O         3.271320        -1.353360         2.630195
 C         0.953177        -0.975038         1.815877
 C         0.926144        -0.372872         0.446801
 C         2.388838        -0.438120         0.171674
 O         3.183673        -0.791134        -0.873007
 H         2.114905         3.132768        -0.260098
 H         2.971927         2.078007        -1.252026
 H         1.189566         2.120269        -1.282702
 H         3.586655         1.327728         1.416914
 H         2.228069         1.546570         2.562709
 H         4.150636        -0.888367         2.448542
 H         0.790354        -2.087234         1.740008
 H         0.254476        -0.563107         2.566633
 H         0.160167        -0.367701        -0.262859
 H         2.805568        -1.545539        -1.357101
