19
Iteration:  1582charge 0 multiplicity 1
 C         1.839944         2.318865        -0.406838
 C         2.017463         1.015671         0.310475
 C         2.555076         1.011697         1.729353
 C         2.475434        -0.533923         1.816606
 O         3.311960        -1.260471         2.654374
 C         1.031259        -0.908812         1.726370
 C         1.006214        -0.305854         0.358761
 C         2.450485        -0.488114         0.077764
 O         3.146605        -1.211946        -0.821447
 H         0.836022         2.678125        -0.734365
 H         2.220330         3.206386         0.174921
 H         2.305379         2.139988        -1.386992
 H         3.560322         1.320540         1.798008
 H         1.862686         1.350998         2.621082
 H         4.191453        -1.217716         2.314415
 H         0.746553        -1.978223         1.639388
 H         0.540228        -0.506529         2.568431
 H         0.143133        -0.230760        -0.350718
 H         2.516063        -1.514477        -1.566829
