19
Iteration:  4142charge 0 multiplicity 1
 C         1.879375         2.026972        -0.575581
 C         1.884760         0.936828         0.431331
 C         2.187615         0.914428         1.951374
 C         2.373511        -0.600383         1.746017
 O         3.244998        -1.194938         2.620471
 C         0.930285        -1.175462         1.475715
 C         1.056274        -0.347735         0.157821
 C         2.643631        -0.304190         0.224230
 O         3.582756        -0.636358        -0.660203
 H         2.210304         3.008499        -0.125027
 H         2.579659         1.843636        -1.444885
 H         0.884723         2.365003        -1.101372
 H         3.131660         1.346993         2.158320
 H         1.393960         1.280128         2.557789
 H         2.668648        -1.399271         3.374768
 H         1.005808        -2.181891         1.170269
 H         0.032215        -1.091235         2.154283
 H         0.519659        -0.594190        -0.715955
 H         3.645073        -1.652517        -0.570066
