19
Iteration:  3065
 C         1.717299         2.199006        -0.639856
 C         1.902912         0.981034         0.387089
 C         2.418629         1.078306         1.840725
 C         2.433241        -0.540917         1.907389
 O         3.043078        -1.350841         2.924696
 C         1.075475        -1.088020         1.475179
 C         1.175364        -0.408551         0.180893
 C         2.704690        -0.422285         0.243464
 O         3.355104        -0.811326        -0.842798
 H         2.372743         2.905329        -0.203827
 H         2.152006         2.078348        -1.679435
 H         0.729887         2.591738        -0.989939
 H         3.436928         1.440381         2.024065
 H         1.797931         1.567148         2.690424
 H         3.967219        -1.470496         2.728067
 H         1.028721        -2.080336         1.209569
 H         0.184484        -0.868853         2.206169
 H         0.830566        -0.741737        -0.821068
 H         2.763701        -1.392506        -1.445637
