19
Iteration:  2272
 C         1.913315         2.066593        -0.607567
 C         1.934583         0.948788         0.361466
 C         2.437085         1.019942         1.923720
 C         2.477174        -0.497916         1.830899
 O         3.144680        -1.340732         2.763173
 C         0.973830        -0.997732         1.624628
 C         1.079090        -0.405195         0.256848
 C         2.575239        -0.388050         0.210161
 O         3.249415        -0.780458        -0.922285
 H         2.080219         1.848801        -1.734622
 H         0.930451         2.599786        -0.509067
 H         2.736630         2.782372        -0.451667
 H         3.460218         1.506055         1.979707
 H         1.744649         1.371209         2.639565
 H         4.059489        -1.161915         2.977075
 H         0.968682        -2.098148         1.637654
 H         0.171975        -0.540444         2.174290
 H         0.345814        -0.572495        -0.576600
 H         3.275327        -1.735310        -1.038347
