19
Iteration:  1622
 C         1.810056         2.106853        -0.485672
 C         1.964364         0.996766         0.421759
 C         2.581642         1.011583         1.755686
 C         2.503231        -0.530504         1.769689
 O         3.316215        -1.392947         2.459427
 C         0.964526        -0.826373         1.745773
 C         0.988716        -0.199192         0.370602
 C         2.430919        -0.439654         0.196450
 O         3.216930        -1.049521        -0.738630
 H         0.753370         2.401691        -0.702204
 H         2.500049         2.939663        -0.198221
 H         2.221172         1.865967        -1.524102
 H         3.699045         1.253728         1.792403
 H         2.134622         1.610660         2.563335
 H         4.269141        -1.090160         2.340050
 H         0.659292        -1.861104         1.549994
 H         0.146270        -0.255136         2.380979
 H         0.077732        -0.312748        -0.344508
 H         2.855580        -1.898157        -0.928466
