19
Iteration:  4171
 C         1.871660         2.242772        -0.377167
 C         1.936786         0.905432         0.370431
 C         2.027288         0.941913         1.865170
 C         2.345362        -0.540506         1.916738
 O         3.249499        -1.240143         2.821096
 C         0.956855        -1.117974         1.511461
 C         1.193586        -0.501646         0.027744
 C         2.639897        -0.423159         0.102365
 O         3.563754        -0.752620        -0.890976
 H         2.390268         3.085056         0.182432
 H         2.436766         2.081973        -1.241504
 H         0.954020         2.684360        -0.663090
 H         2.841560         1.689436         2.133744
 H         1.066127         1.384431         2.335871
 H         3.413384        -0.632217         3.571592
 H         1.059352        -2.209598         1.318009
 H        -0.016738        -0.815963         1.993017
 H         0.425506        -0.714946        -0.851712
 H         3.541201        -1.736114        -0.911243
