19
Iteration:  3712
 C         1.924129         2.029830        -0.549456
 C         1.758670         0.872228         0.367181
 C         2.259692         1.030156         1.834740
 C         2.318222        -0.471642         1.807179
 O         3.284249        -1.306313         2.445960
 C         0.880333        -0.951663         1.674300
 C         1.045858        -0.442093         0.118283
 C         2.509906        -0.518948         0.250789
 O         3.635993        -0.687821        -0.620026
 H         2.630399         2.665615        -0.024629
 H         2.464931         1.909297        -1.452502
 H         0.974215         2.461083        -0.791686
 H         3.284764         1.497371         1.976723
 H         1.769415         1.663858         2.691272
 H         3.308342        -1.100246         3.410688
 H         0.821082        -2.024277         1.677772
 H         0.064359        -0.448716         2.336791
 H         0.447027        -0.620214        -0.815337
 H         3.921093        -1.654585        -0.516213
