19
Iteration:   890
 C         1.940307         1.992205        -0.659225
 C         1.827460         0.883267         0.406045
 C         2.485154         1.093672         1.760813
 C         2.451018        -0.512476         1.795615
 O         3.291956        -1.281257         2.522189
 C         1.078821        -0.973776         1.745649
 C         0.904959        -0.289209         0.343437
 C         2.356226        -0.490380         0.263709
 O         3.310936        -0.829399        -0.698991
 H         1.092086         2.208053        -1.264144
 H         2.256649         2.899433        -0.157705
 H         2.657347         1.907351        -1.445104
 H         3.604070         1.543874         1.672373
 H         1.907209         1.593479         2.564923
 H         4.223116        -0.919145         2.548064
 H         0.997333        -2.054041         1.629441
 H         0.313716        -0.526993         2.484222
 H         0.141343        -0.476848        -0.513272
 H         3.393670        -1.828548        -0.805974
