19
Iteration:    51charge 0 multiplicity 1
 C         1.772476         1.992510        -0.570389
 C         1.865728         0.964777         0.421882
 C         2.363470         1.096068         1.832042
 C         2.501295        -0.550830         1.765939
 O         3.310693        -1.196090         2.637708
 C         0.984697        -1.046204         1.584433
 C         1.013613        -0.316055         0.224855
 C         2.517839        -0.373585         0.194762
 O         3.433437        -0.921715        -0.753750
 H         2.337365         1.736219        -1.478718
 H         0.767579         2.190266        -0.996104
 H         2.053876         3.067101        -0.251515
 H         3.318307         1.770531         1.876568
 H         1.686946         1.431618         2.631498
 H         2.819673        -1.697081         3.321434
 H         0.802157        -2.158825         1.424872
 H         0.205201        -0.942080         2.413676
 H         0.466374        -0.493094        -0.654849
 H         4.182981        -1.199784        -0.125267
