19
Iteration:  1420
 C         1.774738         2.167893        -0.675219
 C         1.978725         1.012958         0.397897
 C         2.485424         1.032226         1.899544
 C         2.463517        -0.553911         1.808624
 O         3.275242        -1.333254         2.560789
 C         1.100834        -0.948631         1.725197
 C         1.014032        -0.293627         0.305576
 C         2.490050        -0.333444         0.202145
 O         3.208390        -1.056108        -0.753931
 H         2.668923         2.689305        -0.382216
 H         1.887642         1.794666        -1.678396
 H         0.833744         2.662375        -0.483549
 H         3.575184         1.372259         1.724145
 H         1.961950         1.538379         2.664904
 H         4.185149        -0.967261         2.445472
 H         0.948447        -2.032492         1.585570
 H         0.378255        -0.674706         2.460599
 H         0.218944        -0.281575        -0.569827
 H         2.682955        -1.860359        -0.886515
