19
Iteration:  2948
 C         1.867448         2.104995        -0.683938
 C         1.963612         1.016826         0.368949
 C         2.217943         1.050659         1.846499
 C         2.378514        -0.645795         1.772083
 O         3.339879        -1.354964         2.493565
 C         0.873164        -1.078405         1.533141
 C         1.030544        -0.259193         0.310891
 C         2.539034        -0.389860         0.290867
 O         3.522890        -0.889568        -0.593462
 H         2.841950         2.306455        -1.179169
 H         1.088146         1.860318        -1.399443
 H         1.358105         2.946844        -0.218105
 H         3.125473         1.525808         2.255049
 H         1.432509         1.351475         2.509430
 H         3.171622        -1.114748         3.437333
 H         0.720101        -2.216516         1.320127
 H         0.131062        -0.708918         2.216740
 H         0.322939        -0.265508        -0.580151
 H         4.339141        -0.356564        -0.277407
