19
Iteration:  4196charge 0 multiplicity 1
 C         1.837683         2.221862        -0.362371
 C         1.886029         0.894471         0.364340
 C         2.123224         0.884445         1.872514
 C         2.430188        -0.602644         1.736609
 O         2.993180        -1.078506         2.891688
 C         1.077940        -1.244821         1.467066
 C         1.163953        -0.390134         0.096064
 C         2.697062        -0.405471         0.117829
 O         3.587721        -0.777503        -0.836382
 H         2.623159         2.917933         0.077475
 H         2.023127         2.182577        -1.473032
 H         0.825826         2.753269        -0.159876
 H         3.001582         1.453498         2.016199
 H         1.394539         1.198408         2.605290
 H         3.928301        -0.830136         2.860502
 H         1.058852        -2.261966         1.286582
 H         0.287122        -0.833297         2.180551
 H         0.542203        -0.577916        -0.697987
 H         3.199728        -1.579742        -1.329869
