19
Iteration:  3089
 C         1.789132         2.088059        -0.533049
 C         2.053158         0.923227         0.415922
 C         2.287586         0.971109         1.859832
 C         2.457615        -0.546851         1.858676
 O         3.035266        -1.252940         2.873470
 C         1.024232        -1.039285         1.547309
 C         1.090456        -0.364416         0.247620
 C         2.648016        -0.381648         0.051227
 O         3.470077        -0.792540        -0.914393
 H         2.495418         2.927362        -0.396403
 H         1.825268         1.811381        -1.597445
 H         0.741825         2.437445        -0.500865
 H         3.232172         1.479758         2.099771
 H         1.539065         1.353526         2.564288
 H         4.008265        -1.301624         2.837058
 H         0.956306        -2.091856         1.326422
 H         0.214805        -0.755769         2.250961
 H         0.258307        -0.178580        -0.507628
 H         3.214211        -1.736763        -1.035632
