19
Iteration:  2152charge 0 multiplicity 1
 C         1.748384         2.099975        -0.565929
 C         1.988990         1.000126         0.438765
 C         2.520368         0.955397         1.856724
 C         2.450256        -0.631458         1.771011
 O         3.187150        -1.252890         2.731844
 C         0.907731        -0.957074         1.565831
 C         1.034167        -0.184088         0.312108
 C         2.579706        -0.498932         0.180612
 O         3.372774        -0.905706        -0.848808
 H         2.728807         2.684337        -0.820084
 H         1.288709         1.653316        -1.462552
 H         1.129354         2.969670        -0.275479
 H         3.560363         1.354455         1.970740
 H         1.890323         1.346867         2.637800
 H         4.137877        -1.029472         2.495235
 H         0.647848        -2.000952         1.292863
 H         0.288777        -0.637958         2.368740
 H         0.119655        -0.286377        -0.351012
 H         3.264578        -1.907251        -0.938360
