19
Iteration:  1013
 C         1.723735         2.142825        -0.424665
 C         2.005957         0.913836         0.330417
 C         2.544301         1.023417         1.755379
 C         2.499997        -0.466560         1.831843
 O         3.268074        -1.242816         2.730372
 C         0.966397        -0.834942         1.694140
 C         0.988148        -0.240070         0.310700
 C         2.455620        -0.578431         0.102576
 O         3.345832        -1.122623        -0.897395
 H         2.169027         2.198837        -1.382726
 H         0.668799         2.227408        -0.611713
 H         1.997945         3.140450        -0.069433
 H         3.614647         1.482831         1.604777
 H         1.827807         1.535741         2.478603
 H         4.171561        -0.791424         2.719202
 H         0.829385        -1.968073         1.797661
 H         0.345584        -0.355926         2.500055
 H         0.277081        -0.236760        -0.471766
 H         2.839135        -1.901929        -1.343900
