19
Iteration:  2716
 C         1.816741         2.118598        -0.545603
 C         1.903684         0.914000         0.365119
 C         2.293178         1.021689         1.923573
 C         2.410013        -0.536716         1.877398
 O         3.155016        -1.188530         2.793734
 C         1.022213        -1.069236         1.505240
 C         1.123633        -0.381075         0.153772
 C         2.602932        -0.359149         0.166796
 O         3.519796        -0.859323        -0.793587
 H         2.703121         2.651097        -0.449041
 H         1.835103         1.812170        -1.574637
 H         0.938200         2.748315        -0.435657
 H         3.226278         1.536423         2.155407
 H         1.573624         1.412593         2.703527
 H         3.183050        -2.139738         2.478213
 H         1.129352        -2.185024         1.403882
 H         0.132794        -0.925720         2.219509
 H         0.302448        -0.299391        -0.628632
 H         2.890325        -1.318289        -1.469146
