19
Iteration:  1870charge 0 multiplicity 1
 C         2.008344         1.991198        -0.652037
 C         1.988225         0.976563         0.460722
 C         2.496135         1.051616         1.875774
 C         2.447647        -0.576997         1.750153
 O         3.247774        -1.327185         2.540794
 C         1.012209        -1.012068         1.685599
 C         0.931883        -0.243150         0.388228
 C         2.377760        -0.377050         0.201379
 O         3.242465        -0.852357        -0.748839
 H         2.620870         1.662561        -1.533496
 H         0.969085         2.198214        -1.034507
 H         2.269136         3.063624        -0.348375
 H         3.524692         1.215184         1.932540
 H         1.921305         1.632539         2.599983
 H         4.201148        -1.080790         2.409998
 H         0.870564        -2.040537         1.426706
 H         0.503304        -0.796819         2.624129
 H         0.154033        -0.106475        -0.336054
 H         2.739777        -1.580157        -1.172974
