19
Iteration:  2557
 C         1.829717         2.130800        -0.604639
 C         1.881008         0.939377         0.372932
 C         2.222130         1.011454         1.876642
 C         2.364979        -0.578460         1.898816
 O         3.269008        -1.416768         2.590826
 C         0.897982        -0.986133         1.508578
 C         1.084510        -0.369651         0.223347
 C         2.584958        -0.373072         0.284095
 O         3.524891        -0.759996        -0.715366
 H         2.816941         2.680099        -0.354642
 H         2.053123         1.679885        -1.609710
 H         0.991531         2.828724        -0.703813
 H         3.135467         1.654532         1.959433
 H         1.502294         1.545392         2.528025
 H         4.172128        -1.003365         2.663235
 H         0.908325        -2.107101         1.580381
 H         0.164413        -0.420228         2.245706
 H         0.437047        -0.538847        -0.660676
 H         3.502290        -1.769300        -0.617505
