19
Iteration:  4577charge 0 multiplicity 1
 C         1.700513         2.064882        -0.662433
 C         2.007665         1.018369         0.411523
 C         2.512427         0.933578         1.943505
 C         2.416094        -0.586047         1.816114
 O         3.034065        -1.332434         2.794113
 C         1.084606        -1.106511         1.410049
 C         1.050333        -0.340756         0.194442
 C         2.564616        -0.319096         0.202500
 O         3.414175        -0.677153        -0.763811
 H         0.575490         1.991392        -0.899165
 H         2.064636         3.021868        -0.246720
 H         2.228805         1.592315        -1.503838
 H         3.575348         1.131450         1.994756
 H         1.990770         1.310416         2.806523
 H         3.506250        -0.801497         3.430754
 H         1.262906        -2.152510         1.132523
 H         0.187091        -1.112621         1.999039
 H         0.369754        -0.151146        -0.632476
 H         3.797129        -1.624008        -0.600447
