19
Iteration:   981
 C         1.758352         2.228358        -0.658220
 C         1.943754         0.996961         0.333542
 C         2.568840         0.961693         1.775939
 C         2.567715        -0.494123         1.837480
 O         3.160828        -1.267768         2.773967
 C         1.061250        -0.982284         1.738112
 C         1.015416        -0.298004         0.346861
 C         2.495859        -0.427713         0.200345
 O         3.191166        -1.026755        -0.922719
 H         2.058153         1.809870        -1.586267
 H         0.720286         2.451017        -0.577319
 H         2.335839         3.140678        -0.422515
 H         3.634783         1.418197         1.678440
 H         2.153139         1.524403         2.736421
 H         4.069618        -1.132687         2.525731
 H         1.140696        -2.138647         1.643894
 H         0.280065        -0.669903         2.472491
 H         0.478670        -0.559565        -0.517068
 H         3.321807        -1.933562        -0.709340
