19
Iteration:  3583charge 0 multiplicity 1
 C         1.747116         2.131864        -0.542756
 C         1.878901         0.868232         0.309929
 C         2.394682         1.052609         1.866852
 C         2.411753        -0.527932         1.690692
 O         3.158375        -1.201256         2.633434
 C         0.942760        -0.960766         1.533488
 C         0.987683        -0.442565         0.168524
 C         2.489866        -0.482837         0.169816
 O         3.630947        -0.941104        -0.467321
 H         2.836559         2.601005        -0.484123
 H         1.416079         1.996818        -1.602279
 H         1.169867         3.014600        -0.097104
 H         3.444791         1.390294         1.790583
 H         1.886469         1.469782         2.718575
 H         4.069860        -1.222620         2.248373
 H         0.943791        -2.050735         1.551230
 H         0.146839        -0.638644         2.311539
 H         0.139972        -0.582391        -0.512949
 H         3.851195        -0.357317        -1.178810
