19
Iteration:  3325
 C         1.906423         2.137890        -0.713680
 C         1.846688         0.987888         0.392608
 C         2.297501         0.992221         1.917470
 C         2.391589        -0.582955         1.736471
 O         3.237660        -1.289945         2.637539
 C         0.954340        -1.028036         1.616628
 C         1.009823        -0.326200         0.193854
 C         2.505013        -0.438207         0.244515
 O         3.549500        -0.779329        -0.584800
 H         2.439489         2.957799        -0.255355
 H         2.373647         1.791667        -1.659821
 H         0.923252         2.438198        -1.110991
 H         3.289854         1.377200         1.907205
 H         1.721973         1.466233         2.693447
 H         3.662407        -2.032506         2.134262
 H         0.872302        -2.148623         1.467104
 H         0.371586        -0.679359         2.418097
 H         0.208680        -0.233196        -0.518077
 H         3.378092        -1.715952        -0.811033
