19
Iteration:  3204charge 0 multiplicity 1
 C         1.797010         2.012097        -0.701656
 C         1.950032         0.984520         0.404443
 C         2.322934         0.914684         1.944467
 C         2.342504        -0.590591         1.862663
 O         3.295966        -1.215121         2.671399
 C         0.857276        -0.949464         1.494101
 C         1.044694        -0.341062         0.216577
 C         2.617531        -0.398475         0.281214
 O         3.510994        -0.742966        -0.719426
 H         2.735659         2.080523        -1.281030
 H         0.917788         1.930615        -1.393892
 H         1.597775         2.967607        -0.173911
 H         3.307148         1.195686         2.266891
 H         1.642503         1.433828         2.591807
 H         3.382472        -2.151832         2.403824
 H         0.811703        -2.086691         1.496846
 H        -0.043156        -0.611341         2.040697
 H         0.533494        -0.325017        -0.768859
 H         3.796065        -1.655428        -0.675794
