19
Iteration:  3225
 C         1.872538         2.093432        -0.474869
 C         1.947125         0.922736         0.410892
 C         2.382152         0.988956         1.795687
 C         2.410701        -0.553053         1.768725
 O         3.089194        -1.151445         2.868670
 C         0.975582        -1.048452         1.558309
 C         1.009340        -0.408949         0.175640
 C         2.580947        -0.454053         0.100976
 O         3.535469        -0.722765        -0.822460
 H         2.759863         2.220343        -1.131476
 H         1.098871         1.755778        -1.209580
 H         1.440278         2.945354         0.069707
 H         3.357096         1.451667         1.824328
 H         1.833619         1.485165         2.551529
 H         3.346399        -2.051206         2.664351
 H         0.794466        -2.190437         1.502095
 H         0.270914        -0.795619         2.300424
 H         0.267758        -0.547317        -0.653699
 H         3.469683        -1.741720        -0.923539
