19
Iteration:  4148charge 0 multiplicity 1
 C         1.900598         2.086564        -0.570009
 C         1.901814         0.912422         0.399383
 C         2.155224         0.919637         1.899741
 C         2.375033        -0.597223         1.756145
 O         3.254641        -1.193237         2.649191
 C         0.933912        -1.165834         1.451628
 C         1.074025        -0.392490         0.168353
 C         2.647860        -0.339167         0.317849
 O         3.541245        -0.653371        -0.722291
 H         2.154512         2.941809         0.079132
 H         2.530996         2.058064        -1.421799
 H         0.932030         2.333911        -0.851162
 H         3.115492         1.424017         2.298826
 H         1.268546         1.293234         2.541417
 H         2.717956        -1.207789         3.479148
 H         0.983186        -2.286766         1.138666
 H         0.135467        -0.867904         2.145159
 H         0.638244        -0.603733        -0.906058
 H         3.707741        -1.600262        -0.660711
