19
Iteration:  1775charge 0 multiplicity 1
 C         1.838471         2.257399        -0.548061
 C         1.943358         1.020836         0.372857
 C         2.598202         0.947270         1.821221
 C         2.563310        -0.524488         1.758514
 O         3.245931        -1.373006         2.594889
 C         0.988690        -0.943426         1.667937
 C         1.014870        -0.240221         0.305433
 C         2.486451        -0.392425         0.198406
 O         3.141819        -1.041429        -0.766221
 H         2.560352         3.005306        -0.712566
 H         1.722312         1.883868        -1.528471
 H         0.841547         2.690801        -0.512892
 H         3.712453         1.343421         1.725858
 H         2.069177         1.457674         2.622114
 H         4.064947        -1.094799         2.980978
 H         1.045971        -2.027603         1.515445
 H         0.209489        -0.782383         2.506086
 H         0.207749        -0.381423        -0.369810
 H         2.927369        -1.950585        -0.650593
