19
Iteration:  3590
 C         1.784094         2.141994        -0.481537
 C         1.915143         0.918127         0.321815
 C         2.391936         0.992952         1.732755
 C         2.367031        -0.514959         1.731222
 O         3.133791        -1.164258         2.695232
 C         0.955992        -1.009974         1.583121
 C         0.965974        -0.427474         0.159279
 C         2.518808        -0.512808         0.126877
 O         3.640302        -0.908437        -0.505689
 H         2.720003         2.673420        -0.705699
 H         1.354546         1.847119        -1.443717
 H         1.122819         2.843609         0.039127
 H         3.474770         1.249620         1.885241
 H         1.689315         1.348474         2.566311
 H         4.030344        -1.371658         2.329170
 H         1.032647        -2.090887         1.505944
 H         0.296254        -0.510806         2.323846
 H         0.124399        -0.450952        -0.478790
 H         3.751309        -0.418223        -1.374090
