19
Iteration:   398
 C         1.786385         2.111948        -0.618010
 C         1.835123         0.958834         0.371686
 C         2.175765         1.010130         1.878218
 C         2.415316        -0.489822         1.814815
 O         3.312648        -1.121818         2.618657
 C         1.013700        -1.170522         1.531566
 C         1.133206        -0.432882         0.236763
 C         2.650609        -0.376432         0.278194
 O         3.407536        -0.969304        -0.724481
 H         1.738509         3.048969        -0.111649
 H         2.716920         2.065642        -1.144977
 H         0.989853         2.048044        -1.336441
 H         2.972529         1.663114         2.048463
 H         1.299175         1.304408         2.434112
 H         3.295309        -0.691760         3.475403
 H         1.095639        -2.291921         1.452991
 H         0.045564        -0.880517         2.190438
 H         0.729470        -0.714656        -0.767052
 H         4.244986        -0.417930        -0.715076
