19
Iteration:  2978
 C         1.975751         2.095547        -0.584866
 C         1.729696         0.964041         0.447884
 C         2.307758         1.047010         1.860321
 C         2.387515        -0.478005         1.755611
 O         3.254269        -1.329753         2.377641
 C         0.962838        -1.073765         1.559418
 C         1.027014        -0.428936         0.156661
 C         2.482369        -0.317053         0.278912
 O         3.487952        -0.878226        -0.532950
 H         3.040522         2.372355        -0.483510
 H         1.692778         1.608933        -1.572954
 H         1.190407         2.929823        -0.459635
 H         3.305350         1.471357         1.860741
 H         1.739687         1.289626         2.782683
 H         3.575887        -0.860738         3.145947
 H         1.118039        -2.098261         1.560135
 H         0.201964        -0.671191         2.288301
 H         0.336125        -0.362261        -0.664718
 H         4.211855        -1.045760         0.084603
