19
Iteration:  3573charge 0 multiplicity 1
 C         1.768393         2.113289        -0.620291
 C         1.775854         0.931158         0.334068
 C         2.377382         1.040944         1.903980
 C         2.406897        -0.477051         1.787332
 O         3.236717        -1.304566         2.537414
 C         0.903244        -0.983135         1.573190
 C         0.997471        -0.415381         0.152070
 C         2.522612        -0.392425         0.207776
 O         3.615001        -0.997202        -0.442613
 H         2.831491         2.536909        -0.598710
 H         1.572699         2.038404        -1.707287
 H         0.993652         2.792315        -0.161433
 H         3.293925         1.586693         1.704123
 H         1.900230         1.592874         2.673290
 H         4.190884        -1.100228         2.340590
 H         0.822670        -2.079364         1.580436
 H         0.070310        -0.501402         2.173605
 H         0.437251        -0.562123        -0.815381
 H         4.004306        -0.283445        -0.999328
