19
Iteration:  4275
 C         1.812835         2.098082        -0.618181
 C         1.839793         0.928452         0.392713
 C         2.147303         1.003470         1.878026
 C         2.301181        -0.591327         1.819303
 O         3.359947        -1.335742         2.544490
 C         0.843417        -1.021577         1.486340
 C         1.052257        -0.482615         0.095034
 C         2.566702        -0.421521         0.227491
 O         3.774475        -0.559377        -0.439515
 H         2.748476         2.052938        -1.204983
 H         0.843685         2.016429        -1.291117
 H         1.650451         3.088777        -0.003665
 H         3.052837         1.557408         2.099650
 H         1.366667         1.294620         2.533488
 H         3.158319        -2.263307         2.353193
 H         0.793622        -2.088974         1.674094
 H         0.074350        -0.493155         2.103789
 H         0.255804        -0.466348        -0.748207
 H         3.930325        -1.504963        -0.803869
