19
Iteration:   854charge 0 multiplicity 1
 C         1.712657         2.065154        -0.657305
 C         2.025691         0.982806         0.367396
 C         2.417093         0.968390         1.846452
 C         2.510029        -0.582738         1.818974
 O         3.282169        -1.270990         2.748882
 C         0.963859        -0.894506         1.713627
 C         1.055309        -0.249153         0.266848
 C         2.513397        -0.479079         0.154424
 O         3.290263        -0.925080        -0.869097
 H         0.641075         2.391192        -0.641869
 H         2.311203         2.955900        -0.376087
 H         2.057490         1.700120        -1.593580
 H         3.415768         1.525757         1.959638
 H         1.714697         1.455448         2.510629
 H         4.220640        -1.075848         2.415592
 H         0.625320        -1.893989         1.889763
 H         0.549995        -0.258598         2.471119
 H         0.327415        -0.461333        -0.437554
 H         3.370287        -1.918044        -0.647757
