19
Iteration:   864charge 0 multiplicity 1
 C         1.814763         2.040399        -0.667612
 C         1.969569         0.969724         0.382149
 C         2.450594         1.047294         1.810167
 C         2.429018        -0.601012         1.809822
 O         3.312506        -1.285998         2.713432
 C         0.958961        -0.909097         1.807023
 C         0.975809        -0.323674         0.334655
 C         2.470295        -0.357609         0.150486
 O         3.345777        -0.938688        -0.896177
 H         0.670838         2.235414        -0.831401
 H         2.247019         3.034908        -0.385904
 H         2.197581         1.873401        -1.691202
 H         3.448420         1.362637         2.109025
 H         1.720445         1.451775         2.504345
 H         4.245240        -1.156211         2.364446
 H         0.703199        -1.953006         1.676664
 H         0.295452        -0.383574         2.456963
 H         0.317438        -0.392639        -0.456472
 H         3.563022        -1.855075        -0.589533
