19
Iteration:  3627
 C         1.766137         2.146068        -0.574067
 C         1.892027         0.964793         0.410782
 C         2.296018         0.961668         1.884917
 C         2.428855        -0.517251         1.862492
 O         3.124952        -1.169989         2.921007
 C         1.017437        -0.986153         1.454757
 C         1.180480        -0.416992         0.115737
 C         2.618019        -0.454157         0.218793
 O         3.532099        -0.925158        -0.832317
 H         2.748431         2.666589        -0.938895
 H         1.188004         1.732523        -1.443038
 H         1.073958         2.989384        -0.210453
 H         3.223955         1.517491         2.118222
 H         1.526280         1.330080         2.579318
 H         3.772236        -1.772036         2.493628
 H         0.889854        -2.066299         1.501530
 H         0.099112        -0.662336         2.048559
 H         0.457653        -0.493183        -0.745279
 H         2.900043        -1.078273        -1.537148
