19
Iteration:   444
 C         1.812609         2.092781        -0.515841
 C         1.794105         0.886344         0.270014
 C         2.169765         1.023852         1.777892
 C         2.449802        -0.558493         1.771164
 O         3.291779        -1.071473         2.823765
 C         0.969015        -1.130169         1.583181
 C         1.052598        -0.388093         0.168208
 C         2.600655        -0.507557         0.197488
 O         3.501417        -0.860337        -0.736135
 H         1.689277         2.902442         0.170209
 H         2.660023         2.286325        -1.126503
 H         0.899425         2.105551        -1.201853
 H         3.083730         1.630671         1.910465
 H         1.462435         1.375748         2.493301
 H         4.236523        -0.943489         2.670891
 H         0.974242        -2.256462         1.169346
 H         0.114356        -1.023143         2.390696
 H         0.313239        -0.463054        -0.732331
 H         4.460871        -0.715087        -0.415496
