19
Iteration:  4957
 C         1.835628         2.191156        -0.524204
 C         2.024911         1.001517         0.436174
 C         2.376323         0.841888         1.845542
 C         2.387691        -0.606779         1.779008
 O         3.137046        -1.281801         2.783702
 C         0.945095        -1.166453         1.451471
 C         1.013303        -0.363289         0.159090
 C         2.523184        -0.369633         0.168881
 O         3.451225        -0.807186        -0.680646
 H         1.170982         3.085837        -0.258062
 H         2.844343         2.715991        -0.744322
 H         1.647496         1.938436        -1.591014
 H         3.501123         1.236391         2.004580
 H         1.691557         1.418718         2.436623
 H         3.832722        -0.665073         3.013144
 H         0.985581        -2.270915         1.200944
 H         0.143756        -0.973339         2.101690
 H         0.325758        -0.325350        -0.778772
 H         3.934225        -0.073982        -1.061829
