19
Iteration:  3264
 C         1.885037         2.227351        -0.416854
 C         1.947245         0.922528         0.365827
 C         2.315131         0.950924         1.769351
 C         2.430979        -0.613524         1.850776
 O         3.136797        -1.073256         2.999446
 C         0.992517        -1.131369         1.528882
 C         1.122962        -0.462164         0.177488
 C         2.620099        -0.417515         0.129526
 O         3.435283        -0.820849        -1.030704
 H         2.744379         2.933252        -0.382214
 H         1.918030         1.848800        -1.455727
 H         1.035381         2.912100        -0.113463
 H         3.376481         1.347229         1.884245
 H         1.527724         1.483139         2.422481
 H         2.597657        -1.760193         3.479773
 H         0.977897        -2.213969         1.479718
 H         0.139312        -0.688141         2.228775
 H         0.551803        -0.721256        -0.674407
 H         2.989318        -1.525943        -1.475136
