19
Iteration:  4876charge 0 multiplicity 1
 C         1.797971         2.133856        -0.487828
 C         1.894769         0.983749         0.421899
 C         2.385915         0.990085         1.817944
 C         2.352101        -0.580016         1.737450
 O         3.181113        -1.312941         2.604065
 C         0.902129        -1.137535         1.498261
 C         1.048434        -0.268687         0.204777
 C         2.509761        -0.338053         0.165286
 O         3.638533        -0.865341        -0.522611
 H         0.768649         2.295887        -0.752100
 H         2.112087         3.015356         0.091089
 H         2.285994         2.023024        -1.471710
 H         3.424579         1.357504         1.640428
 H         1.768490         1.560050         2.573109
 H         3.995615        -0.935340         2.267580
 H         0.943895        -2.136752         1.163471
 H         0.005568        -1.028796         2.193814
 H         0.299041        -0.064547        -0.517790
 H         3.363542        -1.620767        -1.020460
