19
Iteration:  2471
 C         1.853384         2.037071        -0.522580
 C         2.035617         0.926820         0.388546
 C         2.266538         0.993899         1.936938
 C         2.497061        -0.516169         1.885188
 O         3.029411        -1.317750         2.814781
 C         1.084197        -0.995768         1.606032
 C         1.093234        -0.382264         0.146299
 C         2.586515        -0.387472         0.110352
 O         3.389419        -0.764591        -0.935994
 H         1.577833         2.966300         0.000935
 H         2.748541         2.186820        -1.110977
 H         1.040881         1.910543        -1.187249
 H         3.193295         1.666681         1.828857
 H         1.442528         1.363661         2.581024
 H         3.974683        -1.179468         3.021140
 H         1.096831        -2.044027         1.682266
 H         0.361121        -0.620606         2.339432
 H         0.459429        -0.430262        -0.793640
 H         3.173148        -1.598541        -1.276993
