19
Iteration:   694
 C         1.749127         2.034209        -0.651199
 C         1.934005         0.906660         0.348221
 C         2.461012         0.982377         1.788501
 C         2.369149        -0.501440         1.799018
 O         3.238115        -1.260001         2.552309
 C         0.958086        -0.991699         1.710710
 C         1.003961        -0.396527         0.272408
 C         2.484802        -0.416015         0.223470
 O         3.509346        -0.883467        -0.581419
 H         2.586200         2.058554        -1.368633
 H         0.776527         1.851873        -1.235683
 H         1.553924         3.071365        -0.163391
 H         3.446097         1.374206         1.795881
 H         1.820213         1.467823         2.548270
 H         4.152977        -0.887672         2.635409
 H         0.823024        -2.022713         1.554077
 H         0.341164        -0.471279         2.402440
 H         0.317526        -0.334426        -0.490323
 H         3.472690        -0.218606        -1.344469
