19
Iteration:  4870
 C         1.830746         2.134226        -0.489391
 C         1.893924         0.993168         0.434406
 C         2.380033         0.982420         1.876679
 C         2.350599        -0.615349         1.689812
 O         3.198376        -1.233540         2.599478
 C         0.875951        -1.155891         1.457568
 C         1.000923        -0.303714         0.208528
 C         2.455486        -0.347787         0.180949
 O         3.665141        -0.875044        -0.514504
 H         0.720345         2.228342        -0.677821
 H         2.323088         2.972971         0.055271
 H         2.461086         1.991776        -1.380656
 H         3.392487         1.450632         1.663318
 H         1.960879         1.663036         2.615204
 H         4.087897        -1.016738         2.249320
 H         0.940118        -2.251419         1.133421
 H         0.151649        -0.938211         2.212636
 H         0.190976        -0.116547        -0.518850
 H         3.274911        -1.476719        -1.249357
