19
Iteration:   470charge 0 multiplicity 1
 C         1.706490         2.058378        -0.642727
 C         1.851536         1.003683         0.344232
 C         2.274594         1.018472         1.927346
 C         2.401166        -0.465917         1.866250
 O         3.189874        -1.194514         2.742669
 C         0.985438        -1.066761         1.568157
 C         1.179565        -0.528523         0.193043
 C         2.618166        -0.385673         0.152384
 O         3.495493        -0.888120        -0.731529
 H         1.357321         3.105148        -0.223080
 H         2.650120         2.266196        -1.299672
 H         0.948576         1.637351        -1.350726
 H         3.173329         1.640984         2.389127
 H         1.430244         1.303237         2.637881
 H         4.060865        -1.374277         2.390396
 H         0.978583        -2.146232         1.578648
 H         0.120706        -0.768875         2.087793
 H         0.625891        -0.715517        -0.641916
 H         4.253356        -0.216315        -0.891358
