19
Iteration:  3800
 C         1.823406         2.220687        -0.528092
 C         1.941404         0.908186         0.301598
 C         2.165924         0.953533         1.818430
 C         2.384631        -0.555541         1.802507
 O         3.168996        -1.135150         2.818006
 C         0.950189        -1.123152         1.531166
 C         1.098328        -0.400612         0.127841
 C         2.674833        -0.384229         0.270778
 O         3.573776        -0.827517        -0.734452
 H         2.799048         2.681745        -0.688028
 H         1.320001         2.075350        -1.441347
 H         1.217751         2.909974         0.036783
 H         3.191867         1.341082         2.164573
 H         1.436201         1.177617         2.713854
 H         3.595104        -1.915547         2.405890
 H         0.904813        -2.146318         1.290231
 H         0.071416        -0.709179         2.135109
 H         0.589096        -0.881606        -0.746107
 H         3.303191        -1.529473        -1.336912
