19
Iteration:  3567charge 0 multiplicity 1
 C         1.792001         2.105085        -0.636633
 C         1.751830         0.980618         0.348459
 C         2.336383         1.044872         1.846227
 C         2.382416        -0.458044         1.846102
 O         3.282677        -1.367556         2.495773
 C         0.874845        -0.996156         1.606167
 C         1.029994        -0.392169         0.140623
 C         2.548514        -0.353758         0.243715
 O         3.595055        -1.004805        -0.443970
 H         2.710472         2.658935        -0.633896
 H         1.563014         1.778204        -1.664384
 H         1.018885         2.774972        -0.298900
 H         3.339879         1.512712         1.709920
 H         1.692349         1.542793         2.660236
 H         4.180429        -1.024558         2.379822
 H         0.848587        -2.107630         1.605143
 H         0.151510        -0.449296         2.173217
 H         0.521208        -0.524507        -0.828673
 H         4.105582        -0.367547        -0.903741
