19
Iteration:  1623
 C         1.810782         2.097526        -0.492632
 C         1.969728         0.998488         0.432283
 C         2.589139         1.011751         1.765572
 C         2.505607        -0.532663         1.760337
 O         3.320072        -1.392190         2.454555
 C         0.947685        -0.820707         1.744379
 C         0.991254        -0.198704         0.377503
 C         2.431631        -0.449639         0.199417
 O         3.216100        -1.042534        -0.741464
 H         0.748214         2.417956        -0.711759
 H         2.495158         2.966290        -0.209155
 H         2.194335         1.856307        -1.543351
 H         3.687630         1.263504         1.787121
 H         2.090145         1.637544         2.573964
 H         4.261021        -1.096599         2.353893
 H         0.648126        -1.859982         1.562026
 H         0.153952        -0.267667         2.338545
 H         0.092180        -0.326657        -0.345511
 H         2.869225        -1.899236        -0.904005
