19
Iteration:  2773
 C         1.874670         2.093244        -0.556129
 C         1.897038         0.976354         0.425827
 C         2.397096         1.062108         1.848201
 C         2.367885        -0.591056         1.780649
 O         3.332067        -1.256511         2.565778
 C         0.818522        -1.059339         1.526247
 C         0.984874        -0.447206         0.158685
 C         2.492141        -0.362970         0.204373
 O         3.511053        -0.778802        -0.604917
 H         2.278523         3.034182        -0.279426
 H         2.446739         1.681555        -1.365574
 H         0.904686         2.290481        -0.918438
 H         3.464870         1.366388         1.734486
 H         1.927766         1.630407         2.706296
 H         3.035924        -2.160029         2.727283
 H         0.820579        -2.243772         1.514596
 H         0.037863        -0.688338         2.163273
 H         0.287948        -0.370522        -0.689714
 H         4.091267        -1.006375         0.130637
