19
Iteration:  1103charge 0 multiplicity 1
 C         1.958390         2.007020        -0.778003
 C         1.960740         0.933261         0.381437
 C         2.432524         1.006060         1.903987
 C         2.478907        -0.536671         1.830818
 O         3.429001        -1.324358         2.591454
 C         0.920492        -0.872544         1.720671
 C         0.924795        -0.299123         0.374894
 C         2.362889        -0.438884         0.180448
 O         3.187783        -0.827601        -0.767992
 H         2.597411         1.584349        -1.547262
 H         0.950581         2.334372        -0.987055
 H         2.551865         2.786241        -0.361828
 H         3.479844         1.494500         1.956132
 H         1.727344         1.339057         2.785562
 H         4.316619        -1.149589         2.214107
 H         0.816837        -2.026830         1.712202
 H         0.370123        -0.424681         2.600028
 H         0.093922        -0.292697        -0.385719
 H         3.523529        -1.784251        -0.779566
