19
Iteration:  2724
 C         1.822437         2.032970        -0.549043
 C         1.931905         0.930770         0.417179
 C         2.260839         1.032900         1.899954
 C         2.422092        -0.504244         1.828586
 O         3.193953        -1.220901         2.801387
 C         1.037628        -1.066494         1.489602
 C         1.031609        -0.374961         0.150657
 C         2.590449        -0.347279         0.129715
 O         3.557881        -0.843167        -0.771991
 H         2.632803         2.722227        -0.117723
 H         1.947253         1.824200        -1.642024
 H         0.870974         2.638100        -0.384239
 H         3.214048         1.507741         2.157821
 H         1.436603         1.280266         2.566381
 H         3.118420        -2.105707         2.373499
 H         0.885592        -2.123235         1.418425
 H         0.337298        -0.480178         2.218113
 H         0.220767        -0.134876        -0.495962
 H         2.926864        -1.525704        -1.206097
