19
Iteration:  1224
 C         1.853197         2.240656        -0.487152
 C         1.903263         0.900368         0.277913
 C         2.350559         1.034846         1.767217
 C         2.450124        -0.617178         1.744572
 O         3.422618        -1.239949         2.648323
 C         0.912305        -0.893955         1.757121
 C         0.983260        -0.320365         0.262376
 C         2.565472        -0.419660         0.161721
 O         3.305915        -1.100301        -0.784907
 H         0.880167         2.231195        -1.003320
 H         1.833337         3.006102         0.293834
 H         2.689078         2.225629        -1.145798
 H         3.366204         1.533775         1.611979
 H         1.713427         1.479863         2.426950
 H         4.141779        -0.524103         2.622228
 H         0.621356        -1.968961         1.589955
 H         0.120636        -0.413693         2.443484
 H         0.139763        -0.221669        -0.288167
 H         3.393446        -1.995427        -0.423866
