19
Iteration:   180
 C         1.784583         2.102080        -0.655855
 C         1.854308         0.966009         0.373378
 C         2.395051         1.006091         1.883456
 C         2.409241        -0.535129         1.802459
 O         3.253134        -1.263491         2.683256
 C         0.946633        -1.005424         1.614697
 C         1.051977        -0.526567         0.214301
 C         2.538650        -0.372870         0.136295
 O         3.458909        -0.872317        -0.763094
 H         1.219181         1.840653        -1.566981
 H         1.286526         2.962104        -0.152545
 H         2.800002         2.415113        -1.016532
 H         3.351112         1.563595         1.908095
 H         1.711409         1.501252         2.628689
 H         3.647381        -0.540861         3.211006
 H         1.036284        -2.110384         1.806799
 H         0.203126        -0.582134         2.340181
 H         0.121694        -0.407643        -0.304691
 H         4.233907        -1.072269        -0.256710
