19
Iteration:  3439
 C         1.796193         2.177035        -0.511251
 C         1.945351         0.929924         0.315707
 C         2.275948         0.931956         1.841473
 C         2.419182        -0.575382         1.850950
 O         3.124885        -1.120205         2.940850
 C         1.054288        -1.056358         1.480443
 C         1.213663        -0.389369         0.156773
 C         2.605337        -0.465499         0.153042
 O         3.341709        -0.942643        -0.925368
 H         2.824670         2.499262        -0.895444
 H         1.041243         2.023575        -1.313190
 H         1.221187         2.954657         0.035559
 H         3.252847         1.383243         2.090535
 H         1.580668         1.280731         2.595698
 H         3.927367        -0.588155         3.136293
 H         0.735702        -2.051339         1.449129
 H         0.256952        -0.638581         2.206762
 H         0.416752        -0.606570        -0.573684
 H         4.322780        -0.869797        -0.675135
