19
Iteration:  1146charge 0 multiplicity 1
 C         1.871133         2.081707        -0.674609
 C         1.924082         0.912165         0.367152
 C         2.561886         0.979869         1.785285
 C         2.477073        -0.489142         1.780013
 O         3.221201        -1.282861         2.698827
 C         1.019240        -0.914026         1.799029
 C         0.915397        -0.404891         0.347526
 C         2.438627        -0.494817         0.162336
 O         3.323139        -0.823741        -0.838270
 H         1.821266         1.665945        -1.676406
 H         1.041353         2.693123        -0.279925
 H         2.771682         2.677879        -0.544871
 H         3.596674         1.441482         1.762691
 H         2.061358         1.510196         2.550592
 H         4.205646        -1.211563         2.550643
 H         0.874846        -2.049242         1.972983
 H         0.373446        -0.238251         2.450083
 H        -0.000902        -0.256280        -0.274548
 H         2.822393        -1.564472        -1.327213
