19
Iteration:  4324charge 0 multiplicity 1
 C         1.957078         2.148723        -0.549675
 C         1.871700         0.949328         0.408981
 C         2.095000         0.943778         1.914665
 C         2.397237        -0.567847         1.830610
 O         3.275095        -1.245885         2.679479
 C         0.980122        -1.202817         1.438471
 C         0.989814        -0.424103         0.144941
 C         2.524666        -0.345492         0.152740
 O         3.612496        -0.632892        -0.706988
 H         2.921452         1.918228        -1.073422
 H         1.183818         1.998573        -1.258127
 H         1.887189         3.124106        -0.148448
 H         2.984722         1.514532         2.234364
 H         1.247489         1.272915         2.570069
 H         2.802882        -1.267768         3.547694
 H         1.150964        -2.310703         1.127165
 H         0.149938        -1.224389         2.148669
 H         0.442633        -0.571518        -0.710710
 H         4.017080        -1.384201        -0.336944
