19
Iteration:   137charge 0 multiplicity 1
 C         1.761479         2.120474        -0.709785
 C         1.981918         0.976750         0.351662
 C         2.252308         1.047818         1.873374
 C         2.428727        -0.521421         1.872378
 O         3.304786        -1.264836         2.672245
 C         0.974395        -1.078886         1.576522
 C         1.031450        -0.346344         0.258091
 C         2.600953        -0.352980         0.244303
 O         3.375008        -0.997324        -0.684689
 H         2.076375         1.627772        -1.629382
 H         0.725605         2.466998        -0.700515
 H         2.482194         2.950471        -0.476866
 H         3.236307         1.509355         2.139008
 H         1.543354         1.458616         2.624379
 H         4.258102        -1.264885         2.390519
 H         0.859234        -2.214012         1.431884
 H         0.009461        -0.732143         2.190121
 H         0.316942        -0.348073        -0.564112
 H         4.009781        -0.395985        -1.043061
