19
Iteration:   658charge 0 multiplicity 1
 C         1.699747         2.089379        -0.539911
 C         1.863333         0.923196         0.305025
 C         2.351164         0.953724         1.770661
 C         2.514101        -0.484128         1.874215
 O         3.184553        -1.260632         2.770795
 C         1.033179        -0.920921         1.663687
 C         1.063141        -0.396668         0.200469
 C         2.579532        -0.465167         0.154525
 O         3.458889        -0.968318        -0.812767
 H         2.188718         2.014152        -1.551758
 H         0.601637         2.308412        -0.806318
 H         2.152342         2.988366        -0.139539
 H         3.314977         1.544267         1.830712
 H         1.701582         1.329188         2.494742
 H         3.974714        -0.719947         3.043975
 H         0.753636        -1.954677         1.779164
 H         0.309360        -0.464030         2.467379
 H         0.296684        -0.598475        -0.585392
 H         3.931236        -0.176579        -1.250965
