19
Iteration:  1404charge 0 multiplicity 1
 C         1.818536         2.175832        -0.491830
 C         1.977577         0.995956         0.340191
 C         2.470653         1.024032         1.780063
 C         2.532249        -0.507437         1.776380
 O         3.370742        -1.314003         2.659538
 C         0.919943        -0.953334         1.620424
 C         1.043786        -0.264953         0.297211
 C         2.535024        -0.405054         0.184994
 O         3.158077        -1.077180        -0.782864
 H         2.660054         2.811576        -0.802334
 H         1.322803         1.898123        -1.463206
 H         0.965119         2.820273        -0.132413
 H         3.425007         1.446892         1.940017
 H         1.724289         1.484768         2.520318
 H         4.228983        -0.905542         2.766202
 H         0.851498        -2.066284         1.652316
 H         0.254238        -0.487108         2.501801
 H         0.449218        -0.467551        -0.507857
 H         2.856544        -2.046124        -0.840026
