19
Iteration:  1274charge 0 multiplicity 1
 C         1.893889         1.989836        -0.761982
 C         1.882427         0.983011         0.455919
 C         2.487746         1.128187         1.804330
 C         2.463421        -0.577756         1.852498
 O         3.346740        -1.378190         2.552311
 C         0.877295        -1.005942         1.738596
 C         0.941549        -0.289567         0.380505
 C         2.422376        -0.402717         0.240402
 O         3.373661        -0.795496        -0.764823
 H         1.264906         1.589929        -1.548207
 H         1.415077         2.906311        -0.392272
 H         2.968659         1.979742        -0.976272
 H         3.552894         1.320833         1.748805
 H         1.864911         1.740962         2.567973
 H         4.259383        -1.120261         2.427043
 H         0.599732        -2.068321         1.740261
 H         0.267225        -0.432797         2.391591
 H         0.222526        -0.283716        -0.455133
 H         3.202537        -1.736340        -0.870284
