19
Iteration:  2754
 C         1.808651         2.133163        -0.696028
 C         1.923339         0.957098         0.363735
 C         2.337311         0.885373         1.898194
 C         2.291975        -0.571026         1.851492
 O         3.323395        -1.215401         2.610757
 C         0.857190        -1.005165         1.594947
 C         1.054787        -0.342571         0.188788
 C         2.563472        -0.477871         0.269793
 O         3.544203        -0.736893        -0.696003
 H         2.330480         2.992270        -0.073578
 H         2.380796         2.118660        -1.656176
 H         0.791059         2.549112        -0.743899
 H         3.389530         1.195616         2.111799
 H         1.610432         1.261170         2.647737
 H         3.186852        -2.185077         2.586159
 H         0.498977        -2.031599         1.408564
 H         0.135838        -0.615839         2.291494
 H         0.476844        -0.439969        -0.682644
 H         4.053180        -1.530282        -0.424009
