19
Iteration:  1449charge 0 multiplicity 1
 C         1.872033         1.954244        -0.649988
 C         1.924367         0.946933         0.420390
 C         2.506711         1.082654         1.812124
 C         2.497280        -0.590184         1.784207
 O         3.345373        -1.403184         2.515387
 C         0.981016        -0.862562         1.781641
 C         0.844383        -0.178187         0.415638
 C         2.400234        -0.398433         0.204869
 O         3.368928        -0.898433        -0.752806
 H         2.309704         2.897049        -0.216245
 H         2.520224         1.696991        -1.539043
 H         0.859702         2.051150        -1.127590
 H         3.467647         1.535056         1.761620
 H         1.826457         1.614963         2.598231
 H         4.206443        -1.237828         2.156524
 H         0.706765        -1.971014         1.665401
 H         0.254955        -0.484803         2.683696
 H         0.010371        -0.179697        -0.271255
 H         2.869388        -1.536934        -1.380904
