19
Iteration:  1937charge 0 multiplicity 1
 C         1.905294         2.206446        -0.465052
 C         2.011978         0.973773         0.307206
 C         2.522898         1.079844         1.792398
 C         2.447238        -0.531771         1.811763
 O         3.239370        -1.315887         2.698348
 C         0.981531        -0.984894         1.729083
 C         0.979133        -0.361637         0.310132
 C         2.422158        -0.467401         0.090688
 O         3.228719        -0.968069        -0.930695
 H         1.467276         1.998856        -1.478156
 H         1.357570         3.026121         0.136171
 H         3.037151         2.623267        -0.534105
 H         3.578607         1.270421         1.856592
 H         2.014645         1.540401         2.646322
 H         3.833336        -0.786609         3.259599
 H         0.721175        -2.020715         1.599527
 H         0.314195        -0.617138         2.557420
 H         0.300833        -0.515333        -0.517502
 H         3.405065        -1.936794        -0.980171
