19
Iteration:  1719charge 0 multiplicity 1
 C         1.990496         2.106472        -0.576672
 C         1.947870         0.899399         0.365918
 C         2.502769         0.918705         1.887790
 C         2.495271        -0.610017         1.781277
 O         3.341949        -1.210008         2.684874
 C         0.941537        -0.903969         1.797634
 C         0.921686        -0.253855         0.307071
 C         2.412000        -0.522314         0.145067
 O         3.152923        -0.868560        -0.953330
 H         2.253145         2.898848         0.089575
 H         2.845010         1.946818        -1.200713
 H         1.125356         2.503814        -1.115995
 H         3.650597         1.109067         1.936160
 H         1.981608         1.553135         2.598002
 H         4.327803        -1.077194         2.529288
 H         0.774540        -1.957491         1.944143
 H         0.528746        -0.362287         2.731926
 H         0.212211        -0.422702        -0.585012
 H         2.604027        -1.533924        -1.379825
