19
Iteration:  4103
 C         1.778853         1.976955        -0.706734
 C         1.884814         0.939840         0.319986
 C         2.230693         0.989963         1.885737
 C         2.359458        -0.570466         1.786783
 O         3.233137        -1.389861         2.523156
 C         0.868342        -1.062886         1.529197
 C         1.066351        -0.335391         0.220041
 C         2.559907        -0.309539         0.293457
 O         3.706710        -0.524569        -0.415476
 H         2.415765         2.764270        -0.452574
 H         2.210429         1.471002        -1.556866
 H         0.825088         2.239641        -0.899857
 H         3.223302         1.598690         1.970062
 H         1.586208         1.307929         2.778190
 H         3.112349        -2.352361         2.330585
 H         0.926930        -2.211440         1.289038
 H         0.155762        -0.794350         2.261920
 H         0.603839        -0.569586        -0.723286
 H         3.699761        -1.330307        -0.896657
