19
Iteration:  4856charge 0 multiplicity 1
 C         1.894249         2.163305        -0.501140
 C         1.882207         0.955440         0.444077
 C         2.329239         0.960615         1.916992
 C         2.350714        -0.560741         1.750587
 O         3.268335        -1.176999         2.597172
 C         0.914184        -1.121149         1.474609
 C         0.883139        -0.338186         0.133983
 C         2.511526        -0.421744         0.169838
 O         3.591187        -0.865425        -0.525512
 H         0.978849         2.619708        -0.918083
 H         2.405792         3.061606        -0.045368
 H         2.396975         1.860873        -1.456524
 H         3.455454         1.026529         2.136543
 H         1.684095         1.253863         2.688910
 H         4.158581        -1.301310         2.157234
 H         0.889592        -2.183320         1.369239
 H         0.136172        -0.881028         2.173779
 H         0.277351        -0.466267        -0.689937
 H         3.450961        -0.943476        -1.464174
