19
Iteration:  2630charge 0 multiplicity 1
 C         1.844067         2.197552        -0.540732
 C         1.908183         0.985407         0.294461
 C         2.252241         0.955415         1.819601
 C         2.386202        -0.511090         1.830395
 O         3.328935        -1.253877         2.641654
 C         0.931780        -1.060914         1.521540
 C         1.079911        -0.454436         0.111166
 C         2.494211        -0.397336         0.236498
 O         3.526015        -0.818838        -0.475467
 H         2.775233         2.369199        -1.111042
 H         0.983411         2.068815        -1.195838
 H         1.684006         3.115928         0.051842
 H         3.248582         1.291699         2.083447
 H         1.483847         1.330893         2.543742
 H         3.519542        -2.079965         2.137501
 H         0.780042        -2.185552         1.449153
 H         0.167964        -0.609390         2.019461
 H         0.431218        -0.581137        -0.792376
 H         3.267490        -1.110723        -1.352249
