19
Iteration:  1191charge 0 multiplicity 1
 C         1.706296         2.099453        -0.572055
 C         2.074030         0.980579         0.415521
 C         2.489873         1.081632         1.906489
 C         2.487669        -0.524938         1.766820
 O         3.260138        -1.238578         2.616071
 C         0.992175        -0.924811         1.642086
 C         1.054754        -0.274549         0.257119
 C         2.579655        -0.459744         0.171224
 O         3.239371        -1.110730        -0.824171
 H         0.822025         1.774731        -1.151076
 H         1.513010         3.024860        -0.018308
 H         2.413805         2.456507        -1.310576
 H         3.473381         1.547958         2.104646
 H         1.915881         1.506478         2.670869
 H         3.751707        -0.568800         3.133860
 H         1.051238        -2.054483         1.470280
 H         0.189313        -0.685494         2.448743
 H         0.285831        -0.118099        -0.411661
 H         2.753857        -2.017644        -0.906853
