19
Iteration:  2563charge 0 multiplicity 1
 C         1.848352         2.122176        -0.643811
 C         1.893422         0.943857         0.379544
 C         2.217391         1.047610         1.889280
 C         2.410745        -0.534379         1.884870
 O         3.295988        -1.459231         2.600052
 C         0.855693        -1.008781         1.556897
 C         1.078609        -0.360755         0.192913
 C         2.589112        -0.372762         0.249072
 O         3.513208        -0.755762        -0.650307
 H         2.752357         2.701691        -0.548479
 H         1.836831         1.703307        -1.652351
 H         0.975845         2.830400        -0.594173
 H         3.140355         1.588113         2.038858
 H         1.382777         1.372992         2.544180
 H         4.133204        -1.000193         2.426517
 H         0.710621        -2.104693         1.491273
 H         0.107920        -0.609761         2.139872
 H         0.482147        -0.325505        -0.695652
 H         3.584563        -1.746298        -0.690969
