19
Iteration:  1917charge 0 multiplicity 1
 C         1.975671         2.091113        -0.477703
 C         1.964383         0.874853         0.429731
 C         2.414036         0.981383         1.854877
 C         2.488416        -0.536280         1.768725
 O         3.297530        -1.281490         2.645019
 C         1.000584        -0.894947         1.662349
 C         1.011645        -0.279677         0.280474
 C         2.530388        -0.445648         0.212485
 O         3.149323        -0.947266        -0.970359
 H         2.053044         1.754771        -1.513065
 H         1.172272         2.844960        -0.318477
 H         2.743429         2.895257        -0.237832
 H         3.431364         1.461074         1.661631
 H         1.712840         1.351930         2.575757
 H         3.642824        -0.635248         3.238750
 H         0.891497        -1.932227         1.832771
 H         0.306345        -0.363336         2.327253
 H         0.127862        -0.350416        -0.372106
 H         2.916408        -1.848083        -1.016532
