19
Iteration:   472
 C         1.695080         2.058818        -0.664577
 C         1.854955         1.004447         0.350015
 C         2.287427         1.037976         1.943364
 C         2.419712        -0.454641         1.847843
 O         3.184404        -1.216004         2.747845
 C         0.975600        -1.064960         1.585507
 C         1.195607        -0.528518         0.183245
 C         2.616310        -0.388531         0.172660
 O         3.496677        -0.887537        -0.730257
 H         1.333491         3.046713        -0.233347
 H         2.638716         2.280384        -1.292778
 H         0.984355         1.601519        -1.325111
 H         3.119157         1.652146         2.369922
 H         1.407288         1.309841         2.674759
 H         4.070192        -1.391889         2.349350
 H         0.973361        -2.080288         1.513016
 H         0.063627        -0.824541         2.046244
 H         0.556586        -0.723642        -0.704757
 H         4.189745        -0.175267        -0.934231
