19
Iteration:  2466charge 0 multiplicity 1
 C         1.839369         2.040369        -0.557802
 C         2.017897         0.928053         0.401784
 C         2.277989         0.982398         1.889053
 C         2.505851        -0.509383         1.886873
 O         3.046656        -1.351873         2.803290
 C         1.053235        -0.995688         1.648724
 C         1.063023        -0.339515         0.149803
 C         2.591480        -0.383916         0.138191
 O         3.426890        -0.762751        -0.929074
 H         1.607803         2.932898         0.068178
 H         2.807058         2.288113        -1.078302
 H         1.047140         1.929097        -1.372808
 H         3.079003         1.714376         1.899446
 H         1.448441         1.329356         2.524771
 H         3.963570        -1.156396         3.012530
 H         1.150058        -2.161437         1.694819
 H         0.267331        -0.625721         2.390521
 H         0.489792        -0.406314        -0.736020
 H         3.146290        -1.660966        -1.315501
