19
Iteration:  3357charge 0 multiplicity 1
 C         1.897489         1.998510        -0.621043
 C         1.851526         0.853224         0.336951
 C         2.356921         1.026340         1.843984
 C         2.312531        -0.543419         1.791654
 O         3.290471        -1.322915         2.383615
 C         0.732885        -0.881318         1.675294
 C         0.960956        -0.429935         0.169693
 C         2.514962        -0.446012         0.293772
 O         3.685101        -0.756748        -0.383512
 H         2.578229         2.763715        -0.200408
 H         2.137099         1.862557        -1.719606
 H         1.035059         2.659414        -0.447334
 H         3.376975         1.297495         1.631137
 H         1.964930         1.698361         2.628165
 H         4.040587        -1.251176         1.792480
 H         0.677964        -2.074851         1.750727
 H         0.206249        -0.321766         2.368351
 H         0.197362        -0.316764        -0.573302
 H         3.421548        -0.961934        -1.350539
