19
Iteration:  4745charge 0 multiplicity 1
 C         1.682646         2.172098        -0.424949
 C         1.981849         0.869735         0.323333
 C         2.375776         1.002493         1.775326
 C         2.411668        -0.602879         1.759119
 O         3.093610        -1.191421         2.780821
 C         0.970205        -1.056307         1.562451
 C         1.060767        -0.455216         0.144150
 C         2.566491        -0.472086         0.129045
 O         3.676552        -0.678903        -0.712375
 H         1.289539         2.832842         0.360857
 H         2.652518         2.632107        -0.736229
 H         0.992859         2.023190        -1.286342
 H         3.353593         1.494934         1.877579
 H         1.736232         1.505727         2.460258
 H         2.674731        -2.056378         2.821745
 H         0.892299        -2.100995         1.531613
 H         0.294089        -0.625075         2.292758
 H         0.495236        -0.621580        -0.852629
 H         3.485291        -1.628031        -1.031399
