19
Iteration:  4854charge 0 multiplicity 1
 C         1.906237         2.173748        -0.510095
 C         1.874784         0.956703         0.426737
 C         2.315584         0.936713         1.916743
 C         2.355559        -0.548549         1.754232
 O         3.279805        -1.187861         2.609178
 C         0.922118        -1.110012         1.498194
 C         0.913977        -0.340667         0.131793
 C         2.498361        -0.417342         0.179838
 O         3.578513        -0.863626        -0.529632
 H         0.992841         2.581395        -0.906431
 H         2.456991         3.001354        -0.039489
 H         2.386075         1.863189        -1.465190
 H         3.402141         1.061021         2.137922
 H         1.548275         1.197885         2.687516
 H         4.112719        -1.312304         2.048082
 H         0.915613        -2.155090         1.368755
 H         0.053626        -0.861886         2.190527
 H         0.261839        -0.488005        -0.751384
 H         3.468239        -0.852068        -1.545077
