19
Iteration:  1020charge 0 multiplicity 1
 C         1.725263         2.181268        -0.464887
 C         1.975324         0.901164         0.363394
 C         2.562585         0.984191         1.767335
 C         2.435297        -0.478931         1.837070
 O         3.299868        -1.220472         2.675380
 C         0.936648        -0.805512         1.716517
 C         0.986954        -0.238887         0.313017
 C         2.526315        -0.590399         0.112056
 O         3.347269        -1.137601        -0.885405
 H         2.109213         2.149334        -1.540203
 H         0.631852         2.196544        -0.755805
 H         2.012141         3.108920         0.119983
 H         3.532634         1.465443         1.865119
 H         1.906922         1.385024         2.455135
 H         4.172607        -0.799942         2.869759
 H         0.805108        -1.849295         1.775416
 H         0.377058        -0.257523         2.488951
 H         0.214900        -0.322271        -0.426064
 H         2.877259        -1.776419        -1.474583
