19
Iteration:  2455charge 0 multiplicity 1
 C         1.846837         2.114870        -0.631208
 C         1.892290         0.927272         0.345690
 C         2.332177         1.047915         1.814847
 C         2.436717        -0.555367         1.808832
 O         3.131897        -1.421691         2.793973
 C         0.970506        -0.997336         1.639471
 C         1.068433        -0.307603         0.309830
 C         2.619818        -0.436499         0.194905
 O         3.501818        -0.755989        -0.877690
 H         1.415112         2.980050        -0.071606
 H         2.860176         2.421336        -0.986992
 H         1.167215         1.901439        -1.522640
 H         3.168111         1.536262         2.265319
 H         1.452767         1.296385         2.446768
 H         3.976476        -0.993573         2.951203
 H         0.919505        -2.146269         1.460192
 H         0.194673        -0.684824         2.408610
 H         0.355398        -0.389111        -0.466215
 H         3.124146        -1.583016        -1.179865
