19
Iteration:  1939charge 0 multiplicity 1
 C         1.895554         2.218807        -0.469654
 C         2.018898         0.969847         0.308847
 C         2.513538         1.092160         1.782627
 C         2.440759        -0.542945         1.798460
 O         3.237729        -1.327191         2.708656
 C         0.970812        -1.010809         1.737746
 C         0.980068        -0.339073         0.321871
 C         2.421209        -0.455246         0.099340
 O         3.247315        -0.971233        -0.932758
 H         1.441746         2.003185        -1.443938
 H         1.443965         3.062741         0.127262
 H         2.969993         2.658034        -0.591852
 H         3.642989         1.218910         1.770548
 H         2.042135         1.553063         2.617712
 H         3.872578        -0.752514         3.233258
 H         0.670880        -2.001162         1.606626
 H         0.343375        -0.607991         2.546367
 H         0.254075        -0.567675        -0.510489
 H         3.429251        -1.973474        -0.976642
