19
Iteration:  1613charge 0 multiplicity 1
 C         1.830195         2.206194        -0.481339
 C         1.921450         0.963709         0.327451
 C         2.569059         1.002863         1.727598
 C         2.454356        -0.513859         1.824101
 O         3.298165        -1.395072         2.523180
 C         1.049521        -0.855062         1.762052
 C         0.937774        -0.216799         0.329219
 C         2.434423        -0.385654         0.144191
 O         3.233169        -1.117188        -0.727756
 H         0.744513         2.518990        -0.563104
 H         2.429995         3.025386         0.068933
 H         2.360704         1.955540        -1.439813
 H         3.636861         1.237329         1.558321
 H         2.218022         1.553601         2.697087
 H         4.227471        -1.126342         2.245480
 H         0.907774        -1.942664         1.695261
 H         0.588978        -0.540226         2.676455
 H         0.069186        -0.082277        -0.416971
 H         2.717705        -1.813194        -1.096622
