19
Iteration:  2205
 C         1.991903         2.147396        -0.665607
 C         1.820433         0.976371         0.349983
 C         2.340717         1.000539         1.807214
 C         2.398333        -0.518808         1.828823
 O         3.321192        -1.415386         2.360288
 C         0.855001        -0.957549         1.803561
 C         1.005261        -0.369270         0.251589
 C         2.475075        -0.373912         0.299786
 O         3.426591        -0.835794        -0.592457
 H         2.914746         2.076385        -1.349425
 H         1.068862         2.362096        -1.250133
 H         2.149371         3.007655         0.077606
 H         3.452480         1.150281         1.780241
 H         1.869704         1.476395         2.611892
 H         4.140257        -0.853047         2.505798
 H         0.862227        -2.077813         1.913046
 H         0.219698        -0.467830         2.516475
 H         0.396757        -0.775208        -0.579522
 H         3.085988        -1.722380        -0.864346
