19
Iteration:  1068charge 0 multiplicity 1
 C         1.879683         2.050756        -0.690250
 C         1.883124         0.969502         0.384759
 C         2.463111         1.099297         1.867658
 C         2.437481        -0.435078         1.787823
 O         3.350160        -1.353021         2.478747
 C         1.008917        -0.947830         1.701802
 C         0.954315        -0.230139         0.444638
 C         2.440112        -0.451479         0.212084
 O         3.295870        -1.047757        -0.710759
 H         2.502491         1.825446        -1.540612
 H         1.020474         2.415597        -1.246062
 H         2.296355         2.912849        -0.132962
 H         3.531169         1.603759         1.734412
 H         2.006376         1.694234         2.703802
 H         4.021848        -0.798324         2.911784
 H         1.147168        -2.065061         1.373007
 H         0.314434        -0.878440         2.597368
 H         0.106482        -0.222260        -0.310995
 H         2.683327        -1.727179        -1.125787
