19
Iteration:   279
 C         1.800398         2.045595        -0.593901
 C         1.930818         0.992080         0.399566
 C         2.196532         1.109001         1.882747
 C         2.445552        -0.521646         1.778196
 O         3.288693        -1.223587         2.678948
 C         0.997987        -1.046085         1.573506
 C         0.999079        -0.406736         0.233307
 C         2.577365        -0.363347         0.166016
 O         3.499543        -1.022106        -0.674467
 H         0.778720         1.855644        -0.875200
 H         2.039143         3.062548        -0.234650
 H         2.416992         1.702410        -1.506401
 H         3.123465         1.678203         2.171795
 H         1.333094         1.396523         2.521757
 H         4.013276        -0.519626         2.693861
 H         0.990886        -2.154658         1.401542
 H         0.270848        -0.834386         2.204211
 H         0.333013        -0.511512        -0.545864
 H         3.491571        -0.442921        -1.414708
