19
Iteration:  3410charge 0 multiplicity 1
 C         1.760037         2.083294        -0.601697
 C         1.956704         1.065178         0.397972
 C         2.306004         1.105970         1.869630
 C         2.365193        -0.489112         1.837516
 O         3.137646        -1.291992         2.666352
 C         1.003173        -1.108410         1.496146
 C         1.114939        -0.294410         0.236486
 C         2.610152        -0.392891         0.224765
 O         3.464103        -1.051435        -0.644110
 H         2.619797         2.315938        -1.213921
 H         1.206173         1.621368        -1.410986
 H         1.274685         2.985978        -0.201485
 H         3.303993         1.537781         2.122825
 H         1.538806         1.593762         2.571544
 H         4.060352        -1.069678         2.550994
 H         1.222902        -2.163641         1.059267
 H         0.140294        -1.123484         2.174967
 H         0.505696        -0.536194        -0.606088
 H         3.870970        -0.293815        -1.167487
