19
Iteration:  1134charge 0 multiplicity 1
 C         1.895448         1.946222        -0.547982
 C         1.947187         0.877255         0.379315
 C         2.488792         1.017104         1.784649
 C         2.455684        -0.552729         1.831296
 O         3.265046        -1.238042         2.644856
 C         0.944234        -0.830463         1.817517
 C         0.970624        -0.372015         0.391056
 C         2.420541        -0.444505         0.102270
 O         3.317508        -0.802503        -0.892639
 H         2.048983         1.652112        -1.599230
 H         1.026208         2.601492        -0.731752
 H         2.802375         2.572253        -0.371776
 H         3.606877         1.254845         1.661762
 H         1.983364         1.487034         2.518540
 H         4.136622        -1.256461         2.197111
 H         0.677649        -1.951557         2.046033
 H         0.317231        -0.246929         2.570711
 H         0.147903        -0.466573        -0.427555
 H         3.225965        -1.668540        -1.240691
