19
Iteration:  2279
 C         1.896795         2.070193        -0.587404
 C         1.891186         0.859379         0.380392
 C         2.469764         1.052820         1.908008
 C         2.522167        -0.465885         1.895994
 O         3.090817        -1.351944         2.777969
 C         1.004761        -0.934691         1.622845
 C         1.057066        -0.428862         0.230641
 C         2.588910        -0.391257         0.161902
 O         3.294849        -0.797462        -0.963999
 H         1.848691         1.834377        -1.612746
 H         1.082787         2.766013        -0.390776
 H         2.795705         2.654236        -0.263726
 H         3.370958         1.739261         1.972630
 H         1.702916         1.321118         2.763656
 H         3.992927        -1.046569         2.867633
 H         1.006083        -2.075547         1.602911
 H         0.122128        -0.669440         2.285189
 H         0.381687        -0.493858        -0.638706
 H         3.122798        -1.763712        -1.206468
