19
Iteration:   277charge 0 multiplicity 1
 C         1.812586         2.040043        -0.595706
 C         1.934274         0.981460         0.416780
 C         2.198866         1.127315         1.869252
 C         2.440466        -0.525161         1.796871
 O         3.311709        -1.236881         2.687858
 C         1.016193        -1.064913         1.549794
 C         0.978495        -0.386137         0.217960
 C         2.569532        -0.354344         0.175459
 O         3.485239        -1.017584        -0.665235
 H         0.798169         1.856886        -0.919652
 H         2.001256         3.083827        -0.307777
 H         2.365418         1.773700        -1.472568
 H         3.035930         1.680827         2.102508
 H         1.361396         1.407079         2.509865
 H         4.013411        -0.541147         2.798866
 H         1.014572        -2.111056         1.412965
 H         0.212979        -0.834028         2.217193
 H         0.326947        -0.546718        -0.605900
 H         3.490692        -0.509912        -1.499563
