19
Iteration:  3420
 C         1.756290         2.127566        -0.612971
 C         2.051286         0.993746         0.405614
 C         2.329915         1.066403         1.877516
 C         2.375529        -0.531947         1.841145
 O         3.151020        -1.228792         2.789907
 C         0.934542        -1.119583         1.483354
 C         1.145461        -0.382999         0.159833
 C         2.591282        -0.318255         0.229026
 O         3.384456        -1.026071        -0.746248
 H         2.704818         2.491622        -1.026718
 H         0.961565         1.809703        -1.239352
 H         1.244264         3.026971        -0.196719
 H         3.345651         1.513666         2.072039
 H         1.512497         1.553498         2.509756
 H         4.071808        -0.940386         2.750507
 H         1.246383        -2.206307         1.337195
 H         0.091164        -1.222275         2.210302
 H         0.664277        -0.494122        -0.795159
 H         4.141693        -0.465201        -1.161066
