19
Iteration:   108
 C         1.812766         2.028719        -0.528388
 C         1.879096         0.876526         0.390663
 C         2.209816         1.002031         1.841675
 C         2.414454        -0.558269         1.832658
 O         3.326803        -1.120870         2.624258
 C         0.936795        -0.930204         1.621233
 C         1.070906        -0.374138         0.207255
 C         2.613164        -0.387046         0.199927
 O         3.429206        -1.011619        -0.703037
 H         2.486991         1.910094        -1.396258
 H         0.797219         2.244742        -0.897306
 H         2.316205         2.932018        -0.039393
 H         3.226103         1.560004         1.884011
 H         1.477224         1.329225         2.564769
 H         3.877331        -1.725834         2.118210
 H         0.762515        -2.016361         1.537754
 H         0.285181        -0.316857         2.244484
 H         0.290504        -0.270519        -0.510535
 H         3.911184        -0.408959        -1.264276
