19
Iteration:  1240
 C         1.914443         2.206218        -0.503058
 C         1.811122         0.934414         0.344801
 C         2.426776         1.023812         1.697300
 C         2.478466        -0.487825         1.757831
 O         3.325565        -1.223844         2.580018
 C         0.997204        -0.968677         1.720877
 C         0.875060        -0.347576         0.346654
 C         2.377308        -0.515033         0.122603
 O         3.399161        -1.022135        -0.716544
 H         1.159859         2.413697        -1.267664
 H         2.056742         3.026392         0.216522
 H         2.882394         2.240039        -1.074097
 H         3.399873         1.485107         1.763228
 H         1.884408         1.618928         2.562895
 H         4.248441        -0.886982         2.574195
 H         0.909096        -2.043838         1.766705
 H         0.475297        -0.532707         2.563544
 H         0.119362        -0.578548        -0.492061
 H         3.466195        -1.939889        -0.525513
