19
Iteration:  3248
 C         1.845889         2.269807        -0.517773
 C         1.884423         0.868569         0.262512
 C         2.369803         0.931501         1.773238
 C         2.426681        -0.573854         1.880298
 O         3.083730        -1.115221         3.015588
 C         1.058210        -1.114934         1.614195
 C         1.097854        -0.418976         0.184447
 C         2.579809        -0.507975         0.013211
 O         3.500207        -0.760144        -0.904968
 H         2.910573         2.487107        -0.457730
 H         1.573608         2.502996        -1.570914
 H         1.257140         2.864453         0.217979
 H         3.306533         1.425587         1.802890
 H         1.801039         1.371083         2.567398
 H         2.752143        -2.036478         3.084684
 H         0.920823        -2.220228         1.468064
 H         0.346386        -0.895271         2.393518
 H         0.263271        -0.484293        -0.573156
 H         3.149552        -1.434118        -1.468705
