19
Iteration:  3825charge 0 multiplicity 1
 C         1.894370         2.214686        -0.347353
 C         1.880708         0.883062         0.385726
 C         2.069019         1.038831         1.844220
 C         2.408549        -0.549093         1.768452
 O         3.239258        -1.055116         2.823561
 C         1.054229        -1.157414         1.454707
 C         1.044532        -0.476361         0.055837
 C         2.599670        -0.398275         0.119479
 O         3.599696        -0.897041        -0.774745
 H         2.924876         2.462329        -0.563015
 H         1.405514         2.144381        -1.308604
 H         1.399743         3.012108         0.190048
 H         2.971467         1.594034         1.950510
 H         1.278159         1.480671         2.525493
 H         2.886362        -1.913777         3.093924
 H         0.811581        -2.212548         1.415589
 H         0.386904        -0.592008         2.101195
 H         0.382981        -0.613352        -0.743762
 H         3.498475        -1.769143        -1.061637
