19
Iteration:  2857charge 0 multiplicity 1
 C         1.837684         2.131117        -0.427652
 C         1.916038         0.953113         0.438039
 C         2.325360         0.940315         1.875396
 C         2.366398        -0.584051         1.776489
 O         3.162670        -1.091117         2.869938
 C         0.935110        -1.116406         1.501602
 C         1.140333        -0.316152         0.151374
 C         2.620025        -0.334705         0.100568
 O         3.410277        -1.001565        -0.898104
 H         2.845087         2.553083        -0.401946
 H         1.589617         1.832190        -1.501791
 H         0.995315         2.898833        -0.205288
 H         3.331637         1.236750         2.072479
 H         1.636087         1.420736         2.573173
 H         3.731355        -1.864481         2.647805
 H         0.966333        -2.165594         1.444130
 H         0.071602        -0.703628         2.125846
 H         0.503566        -0.302622        -0.760761
 H         4.235384        -0.485628        -0.777627
