19
Iteration:  3833charge 0 multiplicity 1
 C         1.915645         2.161128        -0.349558
 C         1.897107         0.911481         0.334722
 C         2.117033         1.018306         1.832816
 C         2.417770        -0.506255         1.790738
 O         3.232520        -1.034212         2.763204
 C         1.003026        -1.177731         1.430887
 C         1.066964        -0.434699         0.064073
 C         2.606506        -0.437341         0.152677
 O         3.569748        -0.844923        -0.764197
 H         2.936573         2.463321        -0.594037
 H         1.414651         2.092167        -1.275639
 H         1.270923         2.766562         0.267124
 H         3.109114         1.424245         2.216990
 H         1.374287         1.366044         2.698196
 H         2.746801        -1.683989         3.274622
 H         1.016613        -2.247307         1.381041
 H         0.075290        -0.989564         2.146778
 H         0.377140        -0.752949        -0.710186
 H         3.337425        -1.760093        -0.720053
