19
Iteration:  3636charge 0 multiplicity 1
 C         1.769664         2.073058        -0.566472
 C         1.936936         0.971978         0.420531
 C         2.246021         0.969366         1.971828
 C         2.463426        -0.523252         1.858085
 O         3.094125        -1.149620         2.870805
 C         1.024424        -1.044674         1.497545
 C         1.195954        -0.404932         0.086262
 C         2.665742        -0.347311         0.160622
 O         3.441811        -0.918021        -0.812367
 H         2.794466         2.541939        -0.876236
 H         1.400510         1.628167        -1.502370
 H         1.125337         2.915567        -0.205278
 H         3.209815         1.540254         1.889457
 H         1.393237         1.377208         2.628025
 H         3.603235        -1.888239         2.474235
 H         1.216665        -2.080686         1.521457
 H         0.193546        -0.472893         2.072737
 H         0.767913        -0.393710        -0.902479
 H         2.867615        -1.395704        -1.408173
