19
Iteration:  3605charge 0 multiplicity 1
 C         1.753991         2.139845        -0.521323
 C         1.989326         0.877682         0.260368
 C         2.319333         0.953654         1.748889
 C         2.396715        -0.627873         1.801058
 O         3.137793        -1.157052         2.853219
 C         0.902470        -1.059890         1.612907
 C         1.027347        -0.337581         0.218275
 C         2.539802        -0.396034         0.122445
 O         3.666791        -0.899856        -0.675077
 H         2.755564         2.735511        -0.712791
 H         1.158495         2.041419        -1.462609
 H         1.159198         2.891306         0.131273
 H         3.316584         1.435662         1.727012
 H         1.665771         1.636684         2.274938
 H         3.929228        -1.537737         2.455080
 H         0.750377        -2.144273         1.604997
 H         0.082766        -0.751331         2.367739
 H         0.468643        -0.313735        -0.742736
 H         3.468254        -0.670935        -1.637855
