19
Iteration:  1793
 C         1.753679         2.104813        -0.530249
 C         1.929685         1.031578         0.427809
 C         2.614302         1.098002         1.789297
 C         2.424219        -0.602726         1.791991
 O         3.286673        -1.431486         2.570751
 C         0.977653        -0.895421         1.679794
 C         0.953076        -0.160449         0.333826
 C         2.415654        -0.426507         0.089913
 O         3.357883        -1.049205        -0.757763
 H         2.813106         2.510920        -0.582150
 H         1.405284         1.845993        -1.585096
 H         1.219960         2.919516         0.046730
 H         3.681114         1.301785         1.696770
 H         2.251928         1.642362         2.713675
 H         4.069747        -0.900654         2.625789
 H         0.767700        -1.951769         1.676738
 H         0.375276        -0.405539         2.418702
 H         0.096636        -0.149302        -0.447645
 H         2.954606        -1.907408        -0.810862
