19
Iteration:  4694
 C         1.812372         2.098585        -0.577914
 C         1.988873         1.034202         0.463708
 C         2.207579         0.934995         1.900822
 C         2.367682        -0.571986         1.769294
 O         3.268495        -1.181626         2.698431
 C         0.916687        -1.127621         1.411411
 C         1.115880        -0.259110         0.199884
 C         2.611908        -0.332783         0.210473
 O         3.509060        -0.887007        -0.625469
 H         0.775845         2.500056        -0.509611
 H         2.495142         2.969626        -0.533253
 H         1.871823         1.566115        -1.565487
 H         3.134566         1.417763         2.420494
 H         1.388044         1.187077         2.638301
 H         3.781478        -1.766613         2.096164
 H         1.167218        -2.267700         1.190051
 H         0.046092        -1.038756         2.090752
 H         0.478736        -0.195002        -0.663474
 H         2.948720        -1.562628        -1.098704
