19
Iteration:  3947
 C         1.797801         2.005105        -0.541324
 C         1.861037         0.909533         0.383665
 C         2.259322         0.932845         1.840533
 C         2.402429        -0.557476         1.746641
 O         3.152818        -1.233614         2.697272
 C         0.935951        -1.079688         1.500568
 C         0.988666        -0.314310         0.142559
 C         2.543692        -0.368265         0.228602
 O         3.697690        -0.629866        -0.596658
 H         2.538530         2.683743        -0.272181
 H         2.245443         1.716055        -1.474995
 H         0.905692         2.442227        -0.770443
 H         3.245793         1.440204         1.833514
 H         1.634941         1.458324         2.654578
 H         3.796909        -1.852278         2.333768
 H         0.942008        -2.219238         1.372749
 H         0.210493        -0.847745         2.234709
 H         0.423374        -0.658325        -0.808267
 H         3.752028        -1.647879        -0.566302
