19
Iteration:  4452charge 0 multiplicity 1
 C         1.725763         2.049669        -0.694360
 C         1.913966         1.039061         0.425321
 C         2.058996         1.012068         2.051505
 C         2.386339        -0.552220         1.806108
 O         3.240831        -1.379970         2.446939
 C         0.905432        -1.057984         1.531716
 C         1.138137        -0.277056         0.147827
 C         2.628350        -0.324811         0.283077
 O         3.730797        -0.865540        -0.496567
 H         1.792591         2.978854        -0.056774
 H         2.655561         1.915254        -1.392767
 H         0.694688         2.032267        -1.131041
 H         3.023184         1.603254         2.342846
 H         1.119612         1.270261         2.652510
 H         4.075655        -1.365392         1.974139
 H         0.680038        -2.221082         1.399668
 H         0.190852        -0.637890         2.321231
 H         0.561955        -0.417579        -0.708016
 H         3.358785        -0.880265        -1.458264
