19
Iteration:  2858
 C         1.831467         2.146061        -0.434332
 C         1.921348         0.956430         0.432327
 C         2.325953         0.943391         1.872772
 C         2.373431        -0.584930         1.776259
 O         3.158856        -1.093535         2.877373
 C         0.935116        -1.120426         1.504886
 C         1.135936        -0.323330         0.151691
 C         2.608760        -0.342136         0.104193
 O         3.412500        -1.002660        -0.902984
 H         2.828952         2.532847        -0.400402
 H         1.588355         1.859857        -1.493637
 H         1.029789         2.929121        -0.208116
 H         3.336500         1.236733         2.056961
 H         1.644482         1.393064         2.588629
 H         3.732963        -1.872713         2.672628
 H         1.003893        -2.179434         1.430718
 H         0.089311        -0.706693         2.128969
 H         0.530312        -0.267751        -0.753220
 H         4.253160        -0.471419        -0.751502
