19
Iteration:  2516charge 0 multiplicity 1
 C         1.897031         2.167945        -0.513019
 C         1.982407         0.947375         0.375919
 C         2.350500         0.924067         1.791307
 C         2.402320        -0.652958         1.850323
 O         3.163462        -1.218400         2.914494
 C         1.025855        -1.105732         1.532143
 C         0.971499        -0.346864         0.175460
 C         2.521950        -0.452106         0.097310
 O         3.467127        -0.746747        -0.871358
 H         2.144708         2.986979         0.108374
 H         2.511623         2.204139        -1.398361
 H         0.885191         2.343276        -0.804093
 H         3.435628         1.186456         1.988039
 H         1.651068         1.497063         2.466036
 H         3.670166        -0.453439         3.234084
 H         0.932617        -2.089591         1.208689
 H         0.197614        -0.848070         2.194482
 H         0.044797        -0.541913        -0.437231
 H         3.391109        -1.607690        -1.208238
