19
Iteration:  4250charge 0 multiplicity 1
 C         1.681410         2.018732        -0.614347
 C         1.918698         0.973021         0.420950
 C         2.166098         0.939442         1.934672
 C         2.379905        -0.559798         1.769381
 O         3.099336        -1.332244         2.641887
 C         0.969398        -1.035378         1.476814
 C         1.145369        -0.337334         0.145959
 C         2.702158        -0.312300         0.248341
 O         3.719277        -0.652249        -0.604954
 H         2.605784         2.172901        -1.185823
 H         0.900445         1.698105        -1.276759
 H         1.314323         2.943017        -0.137221
 H         2.997071         1.549655         2.262473
 H         1.242157         1.126403         2.583776
 H         3.532014        -2.034047         2.139023
 H         0.999529        -2.081559         1.523122
 H         0.163785        -0.582656         2.180601
 H         0.691289        -0.599527        -0.727851
 H         3.680039        -1.646717        -0.772957
