19
Iteration:  3451
 C         1.808876         2.148746        -0.436306
 C         1.891895         0.886336         0.373997
 C         2.265095         0.905953         1.781633
 C         2.502312        -0.606487         1.818000
 O         3.092946        -1.099998         2.969764
 C         0.989592        -0.980659         1.608891
 C         1.057089        -0.404412         0.184325
 C         2.682518        -0.474273         0.067926
 O         3.427009        -0.925534        -1.029775
 H         2.846166         2.593395        -0.687537
 H         1.427608         1.979387        -1.444468
 H         1.418370         2.993577         0.167372
 H         3.162103         1.560975         1.859916
 H         1.439492         1.259307         2.410575
 H         3.641767        -0.352370         3.298487
 H         1.050463        -2.010285         1.414456
 H         0.259564        -0.537593         2.362812
 H         0.538760        -0.663578        -0.723485
 H         4.290439        -1.109361        -0.729871
