19
Iteration:   281charge 0 multiplicity 1
 C         1.789880         2.049576        -0.597848
 C         1.928285         0.995957         0.384412
 C         2.196141         1.086463         1.896100
 C         2.446618        -0.517790         1.761936
 O         3.268284        -1.205784         2.668447
 C         0.989972        -1.035143         1.588615
 C         1.029952        -0.420606         0.251067
 C         2.580936        -0.374353         0.162207
 O         3.511671        -1.025479        -0.679695
 H         0.729719         1.901966        -0.861044
 H         2.070454         3.031387        -0.177441
 H         2.448074         1.674436        -1.508755
 H         3.191727         1.665659         2.226530
 H         1.319124         1.386228         2.528541
 H         4.001154        -0.553513         2.614411
 H         0.977363        -2.183245         1.401681
 H         0.216713        -0.791240         2.304461
 H         0.290356        -0.478464        -0.549083
 H         3.510324        -0.354996        -1.397300
