19
Iteration:  4782
 C         1.816330         2.039755        -0.580205
 C         1.874211         1.020893         0.458991
 C         2.365454         0.923980         1.888219
 C         2.372853        -0.642288         1.732190
 O         3.235024        -1.163404         2.812261
 C         0.923851        -1.206337         1.441217
 C         1.042694        -0.302592         0.166231
 C         2.521052        -0.300849         0.122902
 O         3.540443        -0.700671        -0.736993
 H         1.245865         2.945891        -0.241772
 H         2.827418         2.381274        -0.908296
 H         1.214556         1.759936        -1.445956
 H         3.486964         1.150937         2.005729
 H         1.708862         1.314574         2.684851
 H         2.987694        -2.030273         3.192309
 H         0.795930        -2.326582         1.166927
 H         0.254115        -0.951263         2.262670
 H         0.625420        -0.548618        -0.729840
 H         4.219665        -1.228761        -0.192842
