19
Iteration:  1412charge 0 multiplicity 1
 C         1.767286         2.149848        -0.587882
 C         1.999080         1.021349         0.364599
 C         2.472662         1.023945         1.809353
 C         2.487814        -0.548710         1.779427
 O         3.336465        -1.336705         2.627041
 C         1.009833        -0.943732         1.660152
 C         1.002145        -0.307700         0.285252
 C         2.538434        -0.340116         0.218799
 O         3.169966        -1.058870        -0.759966
 H         2.677891         2.830009        -0.519556
 H         1.691883         1.835765        -1.665134
 H         1.004816         2.871347        -0.201487
 H         3.555189         1.366998         1.955510
 H         1.883810         1.528238         2.588198
 H         4.204454        -0.901991         2.602658
 H         0.964993        -1.999414         1.584451
 H         0.431837        -0.536420         2.426536
 H         0.322575        -0.449840        -0.588188
 H         2.600118        -1.864926        -0.661137
