19
Iteration:  1094
 C         1.981327         1.994133        -0.743142
 C         1.956682         1.031313         0.407775
 C         2.459733         1.000222         1.856397
 C         2.433668        -0.546892         1.745136
 O         3.383998        -1.334915         2.563110
 C         0.997714        -0.938829         1.801129
 C         0.913554        -0.297086         0.376889
 C         2.361033        -0.383545         0.200276
 O         3.224110        -0.865285        -0.755282
 H         2.497715         1.532068        -1.643886
 H         0.986314         2.290596        -1.156150
 H         2.430883         2.934287        -0.441138
 H         3.415372         1.479641         2.096226
 H         1.684526         1.551787         2.628743
 H         4.260751        -0.963616         2.305229
 H         0.898570        -2.001202         1.573968
 H         0.352606        -0.649001         2.648639
 H         0.150990        -0.402649        -0.377630
 H         3.113846        -1.862984        -0.539174
