19
Iteration:  3721
 C         1.943645         2.043607        -0.634169
 C         1.841577         0.892298         0.370716
 C         2.262102         1.091128         1.888482
 C         2.397936        -0.520064         1.860363
 O         3.262298        -1.393392         2.451743
 C         0.879580        -0.931816         1.625436
 C         0.939197        -0.492300         0.151358
 C         2.530001        -0.453148         0.240388
 O         3.624162        -0.669048        -0.563975
 H         2.369635         2.891877        -0.129901
 H         2.336325         1.886512        -1.641563
 H         0.943033         2.457281        -0.703437
 H         3.313360         1.548148         1.824760
 H         1.365025         1.591784         2.370581
 H         3.667025        -1.058319         3.281630
 H         0.746513        -2.042782         1.707825
 H         0.005787        -0.532049         2.189991
 H         0.333919        -0.679160        -0.716087
 H         3.982648        -1.605031        -0.667204
