19
Iteration:   155
 C         1.793642         2.002107        -0.622661
 C         1.836278         0.994252         0.389843
 C         2.352690         1.088211         1.808372
 C         2.414220        -0.548960         1.772920
 O         3.207328        -1.282379         2.676746
 C         1.037720        -1.085358         1.609172
 C         1.077869        -0.245957         0.244971
 C         2.522463        -0.394264         0.216619
 O         3.396483        -0.952564        -0.686247
 H         1.649930         1.659499        -1.678566
 H         0.892012         2.624546        -0.376036
 H         2.635760         2.633235        -0.647703
 H         3.323349         1.500722         1.860618
 H         1.640590         1.625278         2.503509
 H         4.110091        -0.827223         2.609274
 H         1.286600        -2.048609         1.332697
 H         0.482772        -1.051214         2.450407
 H         0.448298        -0.533549        -0.739532
 H         4.210524        -0.534998        -0.435676
