19
Iteration:  3472
 C         1.917265         2.130012        -0.438304
 C         1.923890         0.839477         0.294480
 C         2.324050         1.041033         1.756725
 C         2.380189        -0.515634         1.903431
 O         3.103088        -1.101959         2.903167
 C         1.028813        -1.106742         1.624449
 C         1.059861        -0.506860         0.219702
 C         2.555144        -0.522062         0.025837
 O         3.435003        -0.834732        -1.037160
 H         2.816501         2.810156        -0.126663
 H         1.834032         2.108979        -1.551523
 H         1.152113         2.760371         0.102565
 H         3.370484         1.348488         1.823802
 H         1.645224         1.496780         2.447341
 H         3.335490        -0.457898         3.568706
 H         0.978971        -2.172263         1.577800
 H         0.369703        -0.443931         2.306040
 H         0.148093        -0.603707        -0.364252
 H         4.233537        -1.161706        -0.536491
