19
Iteration:  3115
 C         1.889476         2.090528        -0.531174
 C         1.934573         0.894655         0.425932
 C         2.269528         0.908077         1.891170
 C         2.398537        -0.609304         1.803958
 O         3.241755        -1.214735         2.719579
 C         0.858729        -0.988665         1.584761
 C         1.010345        -0.311321         0.160167
 C         2.577956        -0.485676         0.139432
 O         3.522653        -0.757879        -0.825525
 H         2.843729         2.670756        -0.666444
 H         1.417122         1.799979        -1.472815
 H         1.097978         2.776252        -0.196371
 H         3.307161         1.307257         1.909038
 H         1.624000         1.263622         2.681539
 H         3.709809        -0.486337         3.194396
 H         0.780672        -2.146001         1.441690
 H         0.204393        -0.501983         2.286362
 H         0.538896        -0.411709        -0.776067
 H         3.747792        -1.673506        -0.646940
