19
Iteration:  4168charge 0 multiplicity 1
 C         1.877746         2.239226        -0.386308
 C         1.952227         0.903354         0.359451
 C         2.018287         0.946438         1.868279
 C         2.342324        -0.558382         1.917478
 O         3.262896        -1.235739         2.793896
 C         0.951410        -1.118127         1.507682
 C         1.211030        -0.474716         0.026844
 C         2.641733        -0.445731         0.117318
 O         3.525031        -0.724829        -0.853985
 H         2.308089         3.066895         0.104618
 H         2.459972         2.089602        -1.310413
 H         0.972481         2.639605        -0.747703
 H         2.890479         1.689854         2.073573
 H         1.085665         1.373138         2.363514
 H         3.345129        -0.756180         3.645082
 H         1.006671        -2.314057         1.356752
 H         0.049664        -0.845284         1.984702
 H         0.498785        -0.707083        -0.815108
 H         3.618598        -1.755087        -0.871810
