19
Iteration:  3128
 C         1.908310         2.107628        -0.521900
 C         1.881924         0.929548         0.316682
 C         2.307124         0.915894         1.789216
 C         2.351704        -0.601666         1.820282
 O         3.340383        -1.255348         2.621414
 C         0.862890        -1.023615         1.524257
 C         1.049182        -0.428609         0.196067
 C         2.534191        -0.375083         0.246356
 O         3.478750        -0.729174        -0.666280
 H         2.954770         2.346707        -0.746749
 H         1.527966         1.889427        -1.554201
 H         1.447541         2.973752        -0.021492
 H         3.311950         1.362632         1.895962
 H         1.689538         1.544662         2.519756
 H         3.446118        -0.732102         3.425826
 H         0.537095        -2.087127         1.453004
 H         0.029502        -0.619326         2.193862
 H         0.257374        -0.495111        -0.530788
 H         3.723193        -1.703646        -0.619570
