19
Iteration:  1905
 C         1.977694         2.079305        -0.529581
 C         1.922996         0.975181         0.415781
 C         2.384902         0.991855         1.864065
 C         2.483862        -0.617904         1.799898
 O         3.348667        -1.288661         2.640456
 C         0.940999        -0.920087         1.712522
 C         1.012141        -0.232765         0.336533
 C         2.524501        -0.444279         0.138235
 O         3.181350        -0.941267        -0.949862
 H         2.295852         1.716230        -1.532227
 H         0.952729         2.473733        -0.684832
 H         2.893820         2.705710        -0.201848
 H         3.386251         1.427441         2.049528
 H         1.808296         1.462684         2.662481
 H         3.809094        -0.644551         3.251368
 H         0.589077        -1.882773         1.522326
 H         0.447463        -0.412016         2.560307
 H         0.430018        -0.354137        -0.545841
 H         2.709953        -1.777755        -1.233674
