19
Iteration:  3787
 C         1.799239         2.100015        -0.561700
 C         1.988996         0.961774         0.391249
 C         2.235432         0.993284         1.907728
 C         2.330762        -0.612653         1.836695
 O         3.161530        -1.173318         2.773699
 C         0.953112        -1.121314         1.422984
 C         1.121183        -0.375740         0.154105
 C         2.613104        -0.395724         0.208340
 O         3.568355        -0.776764        -0.674047
 H         2.711203         2.671646        -0.821595
 H         1.411094         1.751472        -1.554802
 H         1.017259         2.756142        -0.118343
 H         3.276255         1.518028         1.950577
 H         1.468526         1.715038         2.354827
 H         3.838109        -1.730592         2.361049
 H         0.915880        -2.232661         1.424139
 H         0.231487        -0.871231         2.240098
 H         0.680225        -0.431684        -0.907723
 H         3.045904        -1.517360        -1.068859
