19
Iteration:  4915charge 0 multiplicity 1
 C         1.690228         2.156417        -0.510520
 C         1.926417         0.976904         0.415509
 C         2.268454         1.008049         1.886230
 C         2.425823        -0.550399         1.800322
 O         3.105520        -1.490476         2.595153
 C         0.932862        -0.890432         1.594705
 C         1.229505        -0.409803         0.167704
 C         2.676144        -0.299670         0.152729
 O         3.521052        -0.880458        -0.800739
 H         0.562733         2.275464        -0.572505
 H         2.260988         3.063967        -0.236309
 H         2.175858         1.931126        -1.482500
 H         3.029123         1.650440         2.365345
 H         1.481360         1.164917         2.676575
 H         3.748715        -1.149191         3.257308
 H         0.727216        -1.986448         1.806345
 H         0.274306        -0.190713         2.116016
 H         0.506471        -0.280163        -0.748158
 H         4.186905        -1.430313        -0.232566
