19
Iteration:  3859
 C         1.840696         2.211246        -0.597579
 C         1.914928         1.004060         0.368387
 C         2.161512         1.000451         1.852620
 C         2.353599        -0.647192         1.845753
 O         3.275237        -1.197459         2.709936
 C         0.965190        -1.244464         1.437769
 C         1.108331        -0.349845         0.135757
 C         2.613738        -0.409899         0.267468
 O         3.523898        -0.751061        -0.693185
 H         2.829052         2.673412        -0.638847
 H         1.640246         1.781719        -1.594765
 H         1.098404         2.954075        -0.342559
 H         3.172837         1.247988         2.084793
 H         1.503888         1.524130         2.575746
 H         2.935193        -1.262785         3.609014
 H         0.850656        -2.335878         1.274170
 H         0.212284        -0.939866         2.133552
 H         0.508663        -0.517704        -0.774392
 H         3.744487        -1.696413        -0.564865
