19
Iteration:  4514
 C         1.922631         2.188227        -0.377993
 C         1.874027         0.944161         0.400196
 C         2.201945         0.991395         1.795317
 C         2.384673        -0.544660         1.799777
 O         3.237567        -1.197013         2.689963
 C         0.925026        -1.155611         1.527260
 C         1.029506        -0.508930         0.098301
 C         2.519781        -0.379626         0.162168
 O         3.591512        -0.780561        -0.673706
 H         1.471311         3.055930         0.049028
 H         2.923164         2.523124        -0.599081
 H         1.553727         2.077454        -1.404806
 H         3.112556         1.496285         2.035379
 H         1.458820         1.364811         2.539484
 H         4.154451        -1.042331         2.446347
 H         0.902939        -2.193929         1.466816
 H         0.002688        -0.752438         2.057648
 H         0.362569        -0.682470        -0.755712
 H         3.274604        -1.606238        -1.195643
