19
Iteration:  1060
 C         1.846713         2.059182        -0.638750
 C         1.898475         0.989667         0.373846
 C         2.512336         1.109775         1.827876
 C         2.523476        -0.506026         1.821952
 O         3.374231        -1.344085         2.508536
 C         1.007338        -0.890178         1.720347
 C         0.940128        -0.260127         0.312565
 C         2.398733        -0.443356         0.231529
 O         3.275904        -1.066673        -0.691644
 H         2.575507         1.996304        -1.487859
 H         0.849309         2.364996        -1.046959
 H         2.230769         2.973201        -0.209396
 H         3.579903         1.459136         1.850367
 H         1.716038         1.590411         2.581957
 H         3.975770        -0.768170         2.979040
 H         1.025560        -1.989631         1.459188
 H         0.135925        -0.758043         2.402545
 H         0.040228        -0.356437        -0.397587
 H         2.715580        -1.639290        -1.238805
