19
Iteration:  4393
 C         1.721442         2.172710        -0.431998
 C         1.848433         0.960313         0.357897
 C         2.288820         0.858108         1.756076
 C         2.376007        -0.624775         1.773554
 O         3.014104        -1.232107         2.800903
 C         0.990505        -1.175362         1.454694
 C         1.109134        -0.343294         0.178568
 C         2.616953        -0.396005         0.136908
 O         3.765946        -0.677631        -0.662795
 H         2.574649         2.806809        -0.347118
 H         1.651611         1.990767        -1.475503
 H         0.806524         2.739418        -0.229096
 H         3.266442         1.341958         1.849707
 H         1.657104         1.383442         2.631707
 H         3.930755        -0.870564         2.799609
 H         1.096675        -2.175476         1.148542
 H         0.130568        -1.054933         2.281222
 H         0.284414        -0.512851        -0.660347
 H         3.479743        -1.493021        -1.156568
