19
Iteration:  1934charge 0 multiplicity 1
 C         1.928427         2.197014        -0.462013
 C         1.997729         0.969939         0.318893
 C         2.531792         1.041917         1.805151
 C         2.460329        -0.515986         1.832735
 O         3.240308        -1.298681         2.679672
 C         0.993637        -0.936591         1.714131
 C         0.977677        -0.389838         0.293762
 C         2.433907        -0.485620         0.084658
 O         3.200590        -0.959410        -0.929006
 H         1.532656         2.037048        -1.491157
 H         1.250996         2.896081         0.080558
 H         2.989233         2.531267        -0.471430
 H         3.543982         1.391447         1.968321
 H         1.942976         1.540878         2.660782
 H         3.780567        -0.807832         3.290411
 H         0.845275        -2.095952         1.599208
 H         0.290392        -0.619269         2.527886
 H         0.322992        -0.416934        -0.541395
 H         3.327682        -1.885298        -0.940098
