19
Iteration:  2000
 C         1.785633         2.058319        -0.635513
 C         2.004807         0.995996         0.374389
 C         2.446528         1.041318         1.843606
 C         2.406112        -0.466720         1.864266
 O         3.250406        -1.506698         2.465143
 C         0.865006        -0.843468         1.788414
 C         1.095718        -0.297499         0.336445
 C         2.547464        -0.402195         0.237101
 O         3.395856        -0.898303        -0.745778
 H         0.835752         2.296554        -1.076490
 H         2.094214         2.988652        -0.207149
 H         2.466325         1.797498        -1.375406
 H         3.457881         1.365380         1.946000
 H         1.896936         1.542453         2.711414
 H         4.059219        -1.424733         1.885037
 H         0.636711        -1.940807         1.654732
 H         0.124058        -0.306311         2.438595
 H         0.294401        -0.252603        -0.363952
 H         2.753737        -1.604492        -1.070944
