19
Iteration:  2209charge 0 multiplicity 1
 C         2.004948         2.107779        -0.629950
 C         1.804291         0.965464         0.368540
 C         2.373530         0.996349         1.818955
 C         2.358211        -0.527381         1.797554
 O         3.339639        -1.395672         2.362442
 C         0.880151        -0.952660         1.796378
 C         1.007986        -0.329900         0.219738
 C         2.454003        -0.382187         0.274620
 O         3.435599        -0.837880        -0.583435
 H         2.830338         1.901441        -1.352510
 H         1.094753         2.304176        -1.191611
 H         2.107699         2.900185         0.039971
 H         3.399800         1.337680         1.845939
 H         1.792642         1.531144         2.619328
 H         4.074029        -0.830497         2.542889
 H         0.850905        -2.012977         1.872897
 H         0.245938        -0.513444         2.595110
 H         0.318149        -0.686882        -0.587971
 H         3.052998        -1.708756        -0.848154
