19
Iteration:  4546charge 0 multiplicity 1
 C         1.773819         2.153531        -0.455160
 C         1.942125         0.928598         0.367682
 C         2.240677         0.961836         1.832697
 C         2.447860        -0.589280         1.888522
 O         3.104927        -1.330562         2.772813
 C         0.971756        -1.010366         1.565548
 C         1.104524        -0.357811         0.200603
 C         2.667510        -0.437329         0.167164
 O         3.523118        -0.749855        -0.943843
 H         0.777562         2.675195        -0.471592
 H         2.539549         2.893652        -0.233994
 H         1.921849         1.819958        -1.539337
 H         3.135423         1.414885         2.082637
 H         1.434173         1.219113         2.519375
 H         3.755378        -0.703258         3.193498
 H         0.887587        -2.023921         1.404945
 H         0.058582        -0.698726         2.138410
 H         0.474316        -0.540570        -0.662291
 H         3.959701        -1.544784        -0.750081
