19
Iteration:  3021
 C         1.874786         2.104990        -0.529677
 C         1.996327         0.919293         0.366999
 C         2.222343         0.919832         1.873951
 C         2.409225        -0.604949         1.727646
 O         3.258701        -1.224149         2.612296
 C         0.915633        -1.003955         1.579981
 C         1.012174        -0.242479         0.262141
 C         2.515044        -0.533513         0.172897
 O         3.564798        -0.816622        -0.687475
 H         2.426290         2.878415        -0.036334
 H         2.229421         1.964620        -1.592720
 H         0.793044         2.285840        -0.732879
 H         3.080546         1.557434         2.114149
 H         1.335329         1.379306         2.420282
 H         3.842034        -0.589355         3.018035
 H         0.764040        -2.012086         1.391869
 H         0.134723        -0.575550         2.299973
 H         0.133311        -0.160224        -0.362609
 H         3.518720        -1.774165        -1.011748
