19
Iteration:   275
 C         1.820361         2.035341        -0.598801
 C         1.936342         0.968657         0.429380
 C         2.196990         1.133657         1.857150
 C         2.434600        -0.527219         1.814239
 O         3.332040        -1.244846         2.694013
 C         1.033439        -1.080428         1.528326
 C         0.970238        -0.363574         0.206525
 C         2.559821        -0.349046         0.187219
 O         3.471420        -1.011226        -0.656151
 H         0.787155         1.898000        -0.977087
 H         1.965328         3.094546        -0.369862
 H         2.352146         1.843682        -1.470334
 H         3.032598         1.723877         2.055228
 H         1.379162         1.421558         2.504540
 H         4.007928        -0.595200         2.903618
 H         1.044973        -2.127240         1.419271
 H         0.135087        -0.818143         2.271155
 H         0.300962        -0.572310        -0.686263
 H         3.495624        -0.573352        -1.580299
