19
Iteration:  1168charge 0 multiplicity 1
 C         1.723274         2.124258        -0.645008
 C         1.921898         0.992915         0.332832
 C         2.526147         1.039240         1.751693
 C         2.517815        -0.539998         1.851829
 O         3.233887        -1.379370         2.741392
 C         1.070609        -0.975822         1.727546
 C         1.004184        -0.197112         0.366323
 C         2.493650        -0.401509         0.111464
 O         3.282516        -0.993796        -0.788652
 H         1.255677         1.703201        -1.544524
 H         1.312653         3.088366        -0.283378
 H         2.742514         2.398545        -0.981092
 H         3.580725         1.431081         1.637870
 H         2.152244         1.655757         2.487514
 H         3.950926        -0.904708         3.152301
 H         0.945197        -2.086425         1.440239
 H         0.246721        -0.659483         2.452905
 H         0.398506        -0.547648        -0.464347
 H         2.828584        -1.600740        -1.341948
