19
Iteration:  4014
 C         1.844837         2.235533        -0.422508
 C         1.858249         0.943686         0.428038
 C         2.066793         0.971944         1.898815
 C         2.370498        -0.513129         1.864935
 O         3.186563        -1.160563         2.824397
 C         1.119293        -1.217691         1.354078
 C         1.155734        -0.398222         0.060620
 C         2.663343        -0.337435         0.170076
 O         3.544183        -0.903589        -0.809427
 H         2.831372         2.417748        -0.712912
 H         1.438509         1.965054        -1.387903
 H         1.354960         3.065892        -0.130708
 H         3.038839         1.466331         2.227714
 H         1.288103         1.324321         2.622199
 H         2.803828        -0.728347         3.633342
 H         1.353399        -2.333577         1.109143
 H         0.283158        -1.184793         1.993350
 H         0.590409        -0.499935        -0.851804
 H         3.159802        -1.662415        -1.235158
