19
Iteration:  1707charge 0 multiplicity 1
 C         2.049828         2.118252        -0.593904
 C         1.902731         0.947675         0.401612
 C         2.596516         0.992177         1.702621
 C         2.448718        -0.591749         1.775730
 O         3.291392        -1.300299         2.647346
 C         0.930960        -1.007020         1.879455
 C         0.938207        -0.347304         0.378577
 C         2.411159        -0.432347         0.206932
 O         3.168224        -0.801614        -0.890170
 H         2.180375         3.047373        -0.041735
 H         2.886832         1.924142        -1.252077
 H         1.177690         2.099040        -1.248493
 H         3.693395         1.325249         1.545502
 H         2.178758         1.490124         2.606889
 H         4.200232        -0.986057         2.523582
 H         0.685544        -2.050719         1.796849
 H         0.229988        -0.458896         2.576190
 H         0.126065        -0.376981        -0.440257
 H         2.711485        -1.524006        -1.437421
