19
Iteration:  1291charge 0 multiplicity 1
 C         1.838553         1.861280        -0.791017
 C         1.938174         0.976227         0.416457
 C         2.400596         0.978713         1.934996
 C         2.443643        -0.549760         1.854856
 O         3.366044        -1.451262         2.607391
 C         0.912959        -0.788367         1.731097
 C         0.963239        -0.190706         0.364865
 C         2.511604        -0.418260         0.213134
 O         3.342069        -0.743619        -0.815270
 H         1.562816         1.182147        -1.639817
 H         1.026501         2.650513        -0.687628
 H         2.843022         2.251399        -1.065214
 H         3.369805         1.537831         1.927239
 H         1.811397         1.337108         2.760329
 H         4.200052        -1.057276         2.388087
 H         0.854677        -1.862883         1.555502
 H         0.337616        -0.375333         2.699207
 H         0.141293        -0.286498        -0.418777
 H         3.188348        -1.669420        -1.127222
