19
Iteration:  1806charge 0 multiplicity 1
 C         1.823507         2.110023        -0.521353
 C         1.993757         0.896907         0.386772
 C         2.553469         0.998529         1.824261
 C         2.438229        -0.545575         1.772349
 O         3.251850        -1.375777         2.471357
 C         0.892338        -0.791132         1.768254
 C         0.918014        -0.194482         0.369840
 C         2.455098        -0.511907         0.175431
 O         3.418404        -0.974895        -0.771975
 H         2.682324         2.512040        -1.029307
 H         1.032618         1.912760        -1.253529
 H         1.320070         2.919468         0.065055
 H         3.671570         1.281715         1.733558
 H         2.007593         1.686309         2.511389
 H         4.200191        -1.087768         2.346444
 H         0.647988        -1.804703         1.635602
 H         0.309759        -0.328567         2.574995
 H        -0.003080        -0.106405        -0.213191
 H         3.285188        -1.915351        -1.116917
