19
Iteration:   260
 C         1.768873         2.073912        -0.731919
 C         1.844880         0.976087         0.307390
 C         2.222902         1.025539         1.885589
 C         2.461938        -0.489456         1.868613
 O         3.352672        -1.252510         2.670661
 C         1.023307        -1.135127         1.533099
 C         1.094166        -0.292980         0.216328
 C         2.530318        -0.397905         0.243416
 O         3.413810        -0.947936        -0.588774
 H         0.805801         2.253784        -1.251210
 H         2.045253         2.887367        -0.041697
 H         2.703176         1.954630        -1.395017
 H         3.272895         1.565771         1.963432
 H         1.459683         1.519163         2.531140
 H         3.845637        -0.675255         3.307888
 H         1.225946        -2.240191         1.226882
 H         0.224703        -1.047300         2.391874
 H         0.484828        -0.329288        -0.686675
 H         3.084439        -0.793230        -1.465738
