19
Iteration:   649charge 0 multiplicity 1
 C         1.687459         2.122006        -0.595622
 C         1.938380         0.885450         0.357376
 C         2.317568         1.020419         1.804588
 C         2.480942        -0.557871         1.769719
 O         3.150175        -1.192927         2.785549
 C         1.052740        -0.980415         1.652947
 C         1.096767        -0.393996         0.267903
 C         2.593532        -0.461272         0.136287
 O         3.400195        -0.963783        -0.831788
 H         2.150374         1.886229        -1.567346
 H         0.580472         2.443772        -0.583042
 H         2.283364         2.916696        -0.049247
 H         3.327373         1.378104         1.917928
 H         1.589269         1.462087         2.510281
 H         4.018952        -0.863424         3.108097
 H         1.073805        -2.018444         1.769371
 H         0.388472        -0.422424         2.278793
 H         0.410470        -0.578892        -0.496162
 H         4.126721        -0.304078        -1.116244
