19
Iteration:  4398charge 0 multiplicity 1
 C         1.737649         2.188432        -0.437304
 C         1.822032         0.970525         0.352328
 C         2.316044         0.882685         1.752891
 C         2.415679        -0.637247         1.741908
 O         3.005797        -1.234428         2.791939
 C         0.979411        -1.157647         1.499671
 C         1.054746        -0.350310         0.144184
 C         2.587690        -0.391455         0.147601
 O         3.786219        -0.680021        -0.620846
 H         2.526776         2.961512        -0.165181
 H         1.718954         1.867497        -1.557229
 H         0.704816         2.581000        -0.189982
 H         3.341061         1.343688         1.796771
 H         1.776904         1.304237         2.562415
 H         3.942130        -1.006540         2.686897
 H         1.058479        -2.253499         1.163626
 H         0.153373        -1.126086         2.154464
 H         0.417564        -0.680627        -0.589853
 H         3.501801        -1.395836        -1.252370
