19
Iteration:  1721
 C         1.984038         2.090800        -0.562692
 C         1.952630         0.905867         0.368607
 C         2.486740         0.908861         1.903002
 C         2.495934        -0.602811         1.790880
 O         3.350185        -1.208224         2.693970
 C         0.956195        -0.879396         1.773682
 C         0.919606        -0.250842         0.312722
 C         2.410732        -0.530877         0.134683
 O         3.149697        -0.885093        -0.965326
 H         2.293040         2.926818         0.045687
 H         2.833871         2.044554        -1.239427
 H         1.135990         2.518917        -1.082647
 H         3.588262         1.139383         1.945190
 H         1.959848         1.485457         2.590180
 H         4.283247        -1.049590         2.476619
 H         0.766815        -1.962038         1.914433
 H         0.541253        -0.351320         2.704462
 H         0.242621        -0.395443        -0.524334
 H         2.647131        -1.550115        -1.389118
