19
Iteration:  2874
 C         1.839610         2.354292        -0.532836
 C         1.948592         0.979985         0.336564
 C         2.362887         0.927025         1.838437
 C         2.464183        -0.590175         1.822613
 O         3.102005        -1.134111         2.957737
 C         1.047378        -1.122818         1.500160
 C         1.035118        -0.403241         0.162281
 C         2.567976        -0.508340         0.115880
 O         3.401663        -0.922018        -0.863404
 H         2.815093         2.840431        -0.786212
 H         1.320797         2.255778        -1.479288
 H         1.219295         2.985273         0.063996
 H         3.327396         1.511749         2.005928
 H         1.646806         1.358026         2.608306
 H         3.346182        -2.054506         2.699952
 H         1.001090        -2.264454         1.251097
 H         0.300808        -1.077036         2.272921
 H         0.231337        -0.592423        -0.619485
 H         4.309747        -0.688442        -0.687546
