19
Iteration:  4521charge 0 multiplicity 1
 C         1.934377         2.175577        -0.378087
 C         1.886671         0.895486         0.336640
 C         2.172013         1.016117         1.849815
 C         2.450527        -0.599662         1.767703
 O         3.207196        -1.220562         2.743422
 C         0.938680        -1.081847         1.554789
 C         1.058731        -0.514575         0.099612
 C         2.524158        -0.392413         0.112586
 O         3.557637        -0.751844        -0.712104
 H         1.170370         2.919904         0.127995
 H         2.950689         2.676958        -0.464687
 H         1.523152         2.097822        -1.418393
 H         3.084363         1.579812         2.089778
 H         1.384183         1.304515         2.522324
 H         4.097251        -0.925759         2.462734
 H         0.759817        -2.206360         1.553101
 H         0.180507        -0.623470         2.168440
 H         0.482783        -0.583578        -0.887703
 H         3.321724        -1.649456        -1.014770
