19
Iteration:  2488
 C         1.838569         2.114450        -0.534300
 C         1.955083         0.951473         0.459018
 C         2.394725         0.976382         1.883040
 C         2.441319        -0.576456         1.846383
 O         3.048806        -1.223424         2.912441
 C         0.978246        -1.088358         1.533904
 C         1.155896        -0.428733         0.157556
 C         2.658869        -0.403214         0.178212
 O         3.362276        -0.759755        -1.012088
 H         1.909685         3.025478         0.134887
 H         2.717461         2.187186        -1.239219
 H         0.885251         2.140204        -1.212486
 H         3.357451         1.397286         2.174833
 H         1.634563         1.357750         2.581402
 H         3.966144        -0.840097         2.935020
 H         0.967484        -2.265558         1.417206
 H         0.073939        -0.619778         2.058527
 H         0.430568        -0.507545        -0.600450
 H         3.175309        -1.671939        -1.185957
