19
Iteration:  2844charge 0 multiplicity 1
 C         1.880237         2.049954        -0.460268
 C         1.967457         0.932873         0.451366
 C         2.257003         0.938096         1.930341
 C         2.372553        -0.581405         1.858275
 O         3.218292        -1.090908         2.740096
 C         0.933302        -1.001918         1.421897
 C         1.106250        -0.343699         0.151261
 C         2.664649        -0.382467         0.197745
 O         3.375797        -0.939609        -0.812537
 H         2.594881         2.948618        -0.417085
 H         1.839682         1.601869        -1.516375
 H         0.891159         2.580769        -0.130466
 H         3.230335         1.439537         2.016780
 H         1.504949         1.339070         2.646713
 H         3.504565        -1.881702         2.273081
 H         0.704108        -2.029198         1.175904
 H         0.186502        -0.612919         2.202119
 H         0.418897        -0.538413        -0.736133
 H         4.212648        -0.678389        -1.202036
