19
Iteration:  3316
 C         1.891157         2.112578        -0.730123
 C         1.916613         0.981457         0.326575
 C         2.274597         0.961069         1.935641
 C         2.393086        -0.587010         1.810844
 O         3.237017        -1.270990         2.700760
 C         0.964471        -1.053171         1.625897
 C         1.001258        -0.289063         0.226797
 C         2.566315        -0.315489         0.188606
 O         3.499260        -0.811335        -0.682341
 H         2.408468         2.982159        -0.351832
 H         2.530367         1.907036        -1.574044
 H         0.831528         2.359430        -0.863109
 H         3.253854         1.335454         2.181850
 H         1.575552         1.229472         2.707682
 H         3.570281        -2.129133         2.334468
 H         0.830758        -2.067124         1.348925
 H         0.200857        -0.889307         2.407023
 H         0.317188        -0.323976        -0.595971
 H         3.384732        -1.782934        -0.742136
