19
Iteration:   206charge 0 multiplicity 1
 C         1.797052         2.070974        -0.550417
 C         1.914651         0.838674         0.289064
 C         2.262844         0.925700         1.787066
 C         2.442944        -0.543193         1.828714
 O         3.334608        -1.193913         2.659110
 C         0.886680        -0.952448         1.572861
 C         1.003606        -0.327886         0.251177
 C         2.620572        -0.515058         0.271590
 O         3.468200        -0.790603        -0.773401
 H         0.930248         1.877728        -1.215370
 H         1.652435         2.942439         0.119109
 H         2.674462         2.241636        -1.266055
 H         3.133200         1.688154         1.756825
 H         1.537671         1.471164         2.384676
 H         3.553706        -0.608930         3.401187
 H         0.717041        -2.096561         1.662326
 H         0.194143        -0.468368         2.482118
 H         0.359201        -0.702107        -0.534524
 H         4.038544        -1.539665        -0.615167
