19
Iteration:  3293charge 0 multiplicity 1
 C         1.853521         2.085523        -0.559593
 C         2.037551         0.945838         0.463544
 C         2.204205         1.028384         1.937899
 C         2.407032        -0.582562         1.825617
 O         3.228918        -1.138946         2.841408
 C         0.994830        -1.074771         1.469222
 C         1.171789        -0.266058         0.170568
 C         2.630488        -0.462900         0.229878
 O         3.341019        -0.851585        -0.943383
 H         2.388454         3.005198        -0.403361
 H         2.384492         1.711002        -1.436368
 H         0.775898         2.251859        -0.661667
 H         3.110267         1.502706         2.233983
 H         1.370757         1.377815         2.519988
 H         3.025624        -2.076343         2.994733
 H         0.916384        -2.130331         1.206956
 H         0.227510        -0.878577         2.190399
 H         0.507933        -0.158573        -0.683425
 H         3.358105        -1.809241        -1.019247
