19
Iteration:  2818charge 0 multiplicity 1
 C         1.874843         2.156393        -0.665832
 C         1.926980         1.052847         0.397378
 C         2.214261         1.009146         1.900518
 C         2.383502        -0.611594         1.842830
 O         3.363778        -1.299473         2.615456
 C         0.863988        -1.058002         1.623246
 C         1.081651        -0.314871         0.209750
 C         2.533079        -0.376567         0.158474
 O         3.481782        -0.924153        -0.667160
 H         2.398656         3.066612        -0.302551
 H         2.294845         1.814930        -1.581496
 H         0.896460         2.544396        -0.779703
 H         3.070296         1.561499         2.391729
 H         1.235594         1.349064         2.330694
 H         3.064498        -2.203539         2.498939
 H         0.780579        -2.226943         1.506491
 H         0.134485        -0.672269         2.290828
 H         0.500684        -0.414168        -0.661764
 H         4.332292        -0.515413        -0.705850
