19
Iteration:   925
 C         1.981886         2.013838        -0.776386
 C         1.810576         0.964106         0.399692
 C         2.442810         1.027002         1.879799
 C         2.405109        -0.563049         1.863590
 O         3.408433        -1.281532         2.467402
 C         0.948831        -0.919729         1.808217
 C         0.896925        -0.321136         0.391321
 C         2.421812        -0.544560         0.208174
 O         3.372758        -0.825977        -0.767772
 H         1.278921         1.814915        -1.506060
 H         1.651464         2.949016        -0.386631
 H         3.059289         1.938412        -0.971526
 H         3.563834         1.404472         1.966882
 H         1.819526         1.549654         2.721195
 H         4.038057        -0.562988         2.799851
 H         0.543546        -1.995610         1.836982
 H         0.245175        -0.322998         2.498457
 H         0.145828        -0.306776        -0.356764
 H         3.031210        -1.613391        -1.338564
