19
Iteration:  4387charge 0 multiplicity 1
 C         1.697851         2.168425        -0.445488
 C         1.899236         0.906382         0.377296
 C         2.241851         0.895245         1.836130
 C         2.319650        -0.600839         1.795003
 O         3.052283        -1.243338         2.818879
 C         0.998907        -1.174754         1.414723
 C         1.114454        -0.367216         0.160258
 C         2.664775        -0.392298         0.123358
 O         3.710349        -0.683475        -0.712028
 H         2.695478         2.716375        -0.468492
 H         1.556167         2.025172        -1.586812
 H         0.941586         2.952257        -0.157610
 H         3.273478         1.308677         1.942175
 H         1.568065         1.337190         2.507691
 H         3.876924        -0.752801         3.022362
 H         1.098010        -2.276689         1.160087
 H         0.308120        -0.930946         2.168096
 H         0.431077        -0.209399        -0.606648
 H         3.579689        -1.543654        -1.066525
