19
Iteration:   884charge 0 multiplicity 1
 C         1.892321         2.032852        -0.681279
 C         1.892937         0.896805         0.387215
 C         2.461852         1.056995         1.804075
 C         2.498981        -0.458534         1.830760
 O         3.276696        -1.284208         2.555885
 C         0.964252        -0.991116         1.744686
 C         0.925584        -0.291678         0.358690
 C         2.414364        -0.501080         0.230133
 O         3.329104        -0.862060        -0.772299
 H         0.915004         2.328426        -1.222082
 H         2.298448         2.964734        -0.208437
 H         2.711045         1.798183        -1.469426
 H         3.362596         1.480927         1.657077
 H         1.971921         1.648555         2.604614
 H         4.154910        -0.958506         2.396358
 H         1.090089        -2.114919         1.735396
 H         0.378819        -0.589225         2.523732
 H         0.066927        -0.367631        -0.202791
 H         3.514989        -1.766492        -0.690157
