19
Iteration:  2201
 C         1.980167         2.184545        -0.680962
 C         1.846398         0.984349         0.329844
 C         2.333740         1.004370         1.801098
 C         2.415684        -0.521244         1.843618
 O         3.311582        -1.422937         2.372952
 C         0.863241        -0.963853         1.783339
 C         0.981800        -0.418565         0.299077
 C         2.492059        -0.379269         0.306312
 O         3.415123        -0.838104        -0.603185
 H         2.859492         2.214895        -1.242611
 H         1.102374         2.393624        -1.285498
 H         2.177856         3.068846        -0.047625
 H         3.440124         1.159189         1.721362
 H         1.840145         1.570134         2.746036
 H         4.157026        -0.986126         2.474344
 H         0.802886        -2.056665         1.875848
 H         0.138515        -0.394527         2.469544
 H         0.471948        -0.740024        -0.568229
 H         3.190129        -1.724258        -0.895427
