19
Iteration:  2794
 C         1.900604         2.063973        -0.605909
 C         1.767705         0.941670         0.376959
 C         2.298139         0.982836         1.915194
 C         2.429445        -0.519367         1.728712
 O         3.241840        -1.262916         2.488726
 C         1.024119        -1.020110         1.559618
 C         0.941939        -0.271011         0.232180
 C         2.526943        -0.401901         0.199402
 O         3.531293        -0.872096        -0.550902
 H         2.294033         2.861715        -0.070875
 H         2.503497         1.840404        -1.459606
 H         0.958170         2.429292        -0.942511
 H         3.325391         1.385898         1.896822
 H         1.748463         1.473301         2.740873
 H         2.754463        -2.102091         2.583770
 H         1.271158        -2.124905         1.465905
 H         0.293373        -0.789442         2.335248
 H         0.169638        -0.395662        -0.542788
 H         4.413657        -0.712629        -0.135854
