19
Iteration:  1181charge 0 multiplicity 1
 C         1.721925         2.055210        -0.602468
 C         1.995643         1.010476         0.395476
 C         2.522672         1.045578         1.798337
 C         2.460343        -0.488508         1.833668
 O         3.254933        -1.313092         2.672553
 C         1.019036        -0.971185         1.616297
 C         1.042987        -0.241487         0.334355
 C         2.571642        -0.320105         0.159420
 O         3.279092        -1.101334        -0.830762
 H         0.856887         1.863051        -1.241853
 H         1.316995         2.893079        -0.051373
 H         2.573330         2.346022        -1.185863
 H         3.564628         1.306054         1.826306
 H         1.819321         1.529985         2.496717
 H         3.831580        -0.756388         3.275493
 H         1.031169        -2.078050         1.565625
 H         0.348216        -0.668505         2.503658
 H         0.284681        -0.050865        -0.322489
 H         2.593607        -1.823580        -1.007195
