19
Iteration:  4512
 C         1.917471         2.193698        -0.395032
 C         1.866586         0.959027         0.411547
 C         2.211156         0.976079         1.801877
 C         2.348944        -0.523049         1.804745
 O         3.247434        -1.191049         2.671761
 C         0.919528        -1.168592         1.510159
 C         1.028517        -0.500609         0.112493
 C         2.529245        -0.384240         0.182199
 O         3.597511        -0.792107        -0.663815
 H         1.503058         3.147331         0.085722
 H         2.983495         2.453033        -0.605591
 H         1.523300         2.057695        -1.431288
 H         3.120006         1.457433         1.971675
 H         1.497394         1.378265         2.500372
 H         4.192601        -1.081438         2.450297
 H         0.973835        -2.238130         1.444492
 H         0.018857        -0.820092         2.043451
 H         0.288239        -0.696718        -0.749526
 H         3.294844        -1.535416        -1.211834
