19
Iteration:  3844charge 0 multiplicity 1
 C         1.883119         2.170131        -0.463656
 C         1.910957         0.874712         0.350091
 C         2.216667         0.917336         1.861601
 C         2.323749        -0.532948         1.798037
 O         3.244826        -1.044047         2.720759
 C         0.963961        -1.173555         1.437741
 C         1.114377        -0.428576         0.139492
 C         2.600484        -0.389907         0.212773
 O         3.517958        -0.813362        -0.724944
 H         2.863084         2.656391        -0.448879
 H         1.466169         2.143681        -1.432745
 H         1.365947         2.930831         0.122232
 H         3.157121         1.505069         2.011426
 H         1.262199         1.285157         2.432734
 H         2.712759        -1.482248         3.413222
 H         1.303619        -2.136406         1.172946
 H         0.019424        -1.168144         2.113468
 H         0.626469        -0.488526        -0.810238
 H         3.636735        -1.748092        -0.788618
