19
Iteration:  3677charge 0 multiplicity 1
 C         1.914693         2.133287        -0.643097
 C         1.955241         0.953907         0.305564
 C         2.237009         1.002801         1.921278
 C         2.344589        -0.569999         1.825685
 O         3.369235        -1.164611         2.758126
 C         0.940858        -1.122650         1.555530
 C         0.992182        -0.310171         0.140468
 C         2.460675        -0.452173         0.131802
 O         3.516782        -0.793031        -0.709416
 H         2.589604         2.858822        -0.279217
 H         2.077939         1.826234        -1.660889
 H         1.009041         2.692067        -0.575614
 H         3.296555         1.298617         2.122526
 H         1.398926         1.229532         2.650808
 H         2.876056        -1.805033         3.328846
 H         1.031009        -2.228998         1.312995
 H         0.234123        -0.965876         2.396146
 H         0.328038        -0.375286        -0.658229
 H         3.618806        -1.798425        -0.513573
