19
Iteration:  2833charge 0 multiplicity 1
 C         1.845155         2.093256        -0.544894
 C         2.036357         0.925563         0.405229
 C         2.189283         0.975719         1.960625
 C         2.382098        -0.534724         1.819881
 O         3.311442        -1.187344         2.676040
 C         0.896270        -0.989559         1.483439
 C         1.140061        -0.321440         0.131295
 C         2.599934        -0.438116         0.302750
 O         3.360167        -0.942007        -0.776540
 H         2.643942         2.868087        -0.309550
 H         1.995050         1.814115        -1.642584
 H         0.767144         2.488925        -0.556014
 H         3.118615         1.490544         2.252510
 H         1.381573         1.258619         2.660399
 H         3.452190        -2.125831         2.426951
 H         0.848324        -2.072900         1.398244
 H         0.057062        -0.574708         2.126054
 H         0.595189        -0.341084        -0.849781
 H         4.097891        -0.250549        -0.840165
