19
Iteration:  2090
 C         1.943604         2.162319        -0.502242
 C         1.922749         0.918328         0.363968
 C         2.409694         0.984136         1.852543
 C         2.467775        -0.566491         1.816651
 O         3.264843        -1.290462         2.700225
 C         1.009928        -0.908216         1.706594
 C         0.975212        -0.332691         0.247862
 C         2.495449        -0.425983         0.123923
 O         3.292216        -0.931668        -0.963503
 H         2.096317         3.022935         0.110799
 H         2.835563         2.154122        -1.115218
 H         1.052692         2.245930        -1.090179
 H         3.358472         1.491543         1.847075
 H         1.672796         1.302447         2.671707
 H         3.634302        -0.828216         3.501924
 H         0.835918        -1.978491         1.681374
 H         0.415809        -0.377941         2.545467
 H         0.065668        -0.519230        -0.379555
 H         3.196088        -1.923447        -1.130914
