19
Iteration:  3790charge 0 multiplicity 1
 C         1.804064         2.134384        -0.559281
 C         1.991979         0.952933         0.356094
 C         2.220066         0.987340         1.904482
 C         2.330158        -0.608045         1.820735
 O         3.161945        -1.160939         2.785474
 C         0.969114        -1.129179         1.440226
 C         1.092808        -0.387452         0.155686
 C         2.645079        -0.402660         0.236343
 O         3.564035        -0.787484        -0.690246
 H         2.682560         2.725949        -0.786094
 H         1.396820         1.826457        -1.469114
 H         1.122162         2.805773        -0.072586
 H         3.236163         1.442333         1.891603
 H         1.407793         1.651383         2.440609
 H         3.778153        -1.765502         2.352151
 H         0.841497        -2.172708         1.391671
 H         0.214932        -0.819012         2.256542
 H         0.725219        -0.588789        -0.873113
 H         3.116358        -1.475754        -1.141109
