19
Iteration:   405
 C         1.820968         2.146685        -0.621355
 C         1.815307         0.942410         0.423915
 C         2.185897         1.000562         1.821033
 C         2.410740        -0.463666         1.794457
 O         3.276721        -1.093926         2.616668
 C         0.974011        -1.225854         1.559447
 C         1.164573        -0.501233         0.211942
 C         2.622664        -0.348387         0.246969
 O         3.419454        -0.963325        -0.720733
 H         1.810978         3.087200         0.041396
 H         2.784080         2.208162        -1.234076
 H         0.985260         2.038382        -1.291186
 H         3.079746         1.607497         2.157440
 H         1.346818         1.259065         2.590881
 H         3.381263        -0.506268         3.391951
 H         1.004175        -2.258364         1.519831
 H         0.356707        -0.934367         2.403493
 H         0.664716        -0.615167        -0.678779
 H         4.285317        -0.566635        -0.725556
