19
Iteration:  4318
 C         1.957019         2.113138        -0.500660
 C         1.868569         0.950961         0.395469
 C         2.159907         0.918437         1.902491
 C         2.402616        -0.551875         1.809838
 O         3.273338        -1.209887         2.646740
 C         1.014362        -1.229043         1.428759
 C         0.961220        -0.431690         0.104495
 C         2.481748        -0.385132         0.155357
 O         3.601279        -0.597716        -0.617466
 H         2.846924         1.939462        -1.096839
 H         1.180228         2.041614        -1.353616
 H         1.967796         3.223890        -0.239926
 H         3.091512         1.409564         2.201651
 H         1.293917         1.330927         2.493513
 H         2.805075        -1.390392         3.479029
 H         1.274222        -2.224253         1.242479
 H         0.021743        -1.054958         1.999290
 H         0.181327        -0.518644        -0.753309
 H         3.975981        -1.425706        -0.237289
