19
Iteration:  1548
 C         1.802298         2.149787        -0.497463
 C         2.046738         0.954796         0.436699
 C         2.576884         0.964685         1.846257
 C         2.481929        -0.521628         1.827507
 O         3.369159        -1.300708         2.612442
 C         0.931681        -0.871963         1.678065
 C         1.084713        -0.214872         0.341925
 C         2.487686        -0.478810         0.154963
 O         3.081383        -1.091155        -0.905309
 H         0.751440         2.335898        -0.843097
 H         2.388801         3.106132        -0.379351
 H         2.398075         1.864311        -1.414729
 H         3.472311         1.515822         1.945257
 H         1.879436         1.491582         2.639500
 H         4.044511        -0.622317         2.761917
 H         0.671720        -1.931917         1.496184
 H         0.451389        -0.420522         2.485764
 H         0.177411        -0.133546        -0.391179
 H         2.384834        -1.716047        -1.316953
