19
Iteration:  2597
 C         1.788274         2.040260        -0.608376
 C         1.863849         0.972587         0.457003
 C         2.279465         0.936924         1.875409
 C         2.315657        -0.469210         1.779324
 O         3.230819        -1.265240         2.500706
 C         0.920694        -1.078543         1.534067
 C         1.018190        -0.260369         0.262133
 C         2.595212        -0.348600         0.213640
 O         3.691519        -0.835650        -0.489059
 H         2.801083         2.116700        -1.071195
 H         1.194430         1.633249        -1.446213
 H         1.381996         3.057723        -0.380113
 H         3.268985         1.220404         2.150015
 H         1.584645         1.359393         2.635027
 H         3.699914        -1.642029         1.763493
 H         0.817786        -2.167487         1.179548
 H         0.102456        -0.821078         2.082041
 H         0.216589        -0.055705        -0.457764
 H         3.577198        -1.579009        -1.031214
