19
Iteration:  4797
 C         1.879031         2.105936        -0.652051
 C         1.904499         0.951775         0.433333
 C         2.208593         0.929021         1.995627
 C         2.405658        -0.577161         1.801209
 O         3.226169        -1.199989         2.680987
 C         1.016441        -1.103526         1.484339
 C         1.079670        -0.397731         0.155869
 C         2.587141        -0.354143         0.259118
 O         3.444929        -0.729625        -0.757669
 H         1.227690         2.924493        -0.351090
 H         2.889492         2.401691        -0.867458
 H         1.544236         1.645337        -1.579660
 H         3.142339         1.398078         2.194984
 H         1.429357         1.265826         2.777651
 H         3.028104        -2.131265         2.548241
 H         1.077195        -2.191757         1.344546
 H         0.140354        -0.846953         2.165129
 H         0.259399        -0.299286        -0.623341
 H         4.323770        -0.916220        -0.357232
