19
Iteration:  1270
 C         1.905715         2.006647        -0.737786
 C         1.898703         0.980730         0.441340
 C         2.489647         1.123891         1.798419
 C         2.454126        -0.551163         1.833441
 O         3.320100        -1.352853         2.539016
 C         0.889946        -1.033948         1.722477
 C         0.944978        -0.332456         0.392671
 C         2.409905        -0.408436         0.220259
 O         3.359366        -0.800599        -0.731720
 H         1.259002         1.694624        -1.572813
 H         1.526403         2.913231        -0.275381
 H         2.963735         2.009579        -1.005206
 H         3.539314         1.388954         1.672372
 H         2.001282         1.730607         2.592819
 H         4.261413        -1.089245         2.395176
 H         0.686340        -2.110500         1.737716
 H         0.322883        -0.384777         2.546153
 H         0.190273        -0.312329        -0.453179
 H         3.227231        -1.790886        -0.848532
