19
Iteration:  4740
 C         1.695714         2.150465        -0.393152
 C         1.970528         0.889176         0.304283
 C         2.335729         0.955028         1.764020
 C         2.459918        -0.578864         1.755491
 O         3.078931        -1.214309         2.757422
 C         0.949743        -1.009865         1.602587
 C         1.096935        -0.486981         0.137596
 C         2.622168        -0.417676         0.163057
 O         3.652662        -0.710827        -0.718662
 H         1.201589         2.983045         0.186955
 H         2.582689         2.668243        -0.741616
 H         1.059613         2.011694        -1.250963
 H         3.238643         1.602320         1.777562
 H         1.570406         1.528661         2.435074
 H         2.774493        -2.161486         2.763882
 H         0.857518        -2.174503         1.612155
 H         0.174750        -0.555222         2.281959
 H         0.637418        -0.570303        -0.793311
 H         3.412307        -1.523362        -1.141677
