19
Iteration:  3979
 C         1.827851         2.195243        -0.530265
 C         2.020577         0.985673         0.365314
 C         2.066645         0.917179         1.922970
 C         2.322709        -0.552556         1.850943
 O         3.256812        -1.126434         2.768624
 C         0.975597        -1.155346         1.478794
 C         1.134853        -0.413254         0.104159
 C         2.642722        -0.424554         0.218492
 O         3.575166        -0.763573        -0.776888
 H         2.673240         2.812956        -0.432142
 H         1.838382         1.742307        -1.497296
 H         1.023441         2.822241        -0.332032
 H         2.992617         1.431832         2.225903
 H         1.116208         1.299673         2.481641
 H         2.981092        -2.007154         3.133477
 H         0.960258        -2.248462         1.264106
 H         0.108138        -0.887706         2.110278
 H         0.675574        -0.699730        -0.943241
 H         3.212672        -1.623444        -1.046110
