19
Iteration:  4131
 C         1.861485         2.033051        -0.640508
 C         1.831511         1.005172         0.465756
 C         2.193022         0.952033         1.958421
 C         2.323295        -0.574260         1.799339
 O         3.259341        -1.256496         2.609082
 C         0.986662        -1.178522         1.427426
 C         1.037261        -0.329613         0.157046
 C         2.498766        -0.320047         0.169010
 O         3.694087        -0.641231        -0.591900
 H         2.371704         3.008313        -0.386524
 H         2.563604         1.501074        -1.345389
 H         0.795013         2.030429        -1.132787
 H         3.158523         1.365839         2.058137
 H         1.618052         1.272898         2.803085
 H         2.886729        -1.834881         3.307694
 H         1.107092        -2.215496         1.262165
 H         0.192540        -0.979833         2.215101
 H         0.303418        -0.185435        -0.611924
 H         3.742799        -1.619995        -0.728086
