19
Iteration:  1896
 C         1.985066         2.110588        -0.677954
 C         1.946711         0.971911         0.432453
 C         2.455091         0.931364         1.910327
 C         2.446366        -0.616570         1.862452
 O         3.393213        -1.314760         2.638728
 C         0.886099        -0.939775         1.752331
 C         1.005956        -0.222037         0.345430
 C         2.409150        -0.392647         0.140145
 O         3.232469        -0.932648        -0.924515
 H         2.424662         1.748390        -1.582153
 H         1.086916         2.646972        -0.898096
 H         2.543273         2.960374        -0.350930
 H         3.476360         1.371809         2.232880
 H         1.602474         1.325141         2.453630
 H         3.990114        -0.662093         3.104290
 H         0.743105        -1.967322         1.479463
 H         0.268852        -0.690027         2.622673
 H         0.384441        -0.287420        -0.564319
 H         2.626250        -1.591156        -1.355188
