19
Iteration:   756
 C         1.862499         2.100083        -0.656092
 C         1.955543         0.928043         0.350688
 C         2.310836         1.076767         1.949639
 C         2.438583        -0.489336         1.834646
 O         3.319604        -1.197699         2.513745
 C         0.952867        -0.996483         1.681943
 C         0.960748        -0.402135         0.303204
 C         2.521559        -0.454520         0.214017
 O         3.404217        -1.009792        -0.668365
 H         2.473207         2.936574        -0.345759
 H         2.329691         1.716920        -1.557326
 H         0.901672         2.422854        -0.868502
 H         3.338475         1.612094         2.249990
 H         1.540674         1.406233         2.634559
 H         4.087245        -0.965798         1.893110
 H         0.789011        -2.064987         1.791043
 H         0.188386        -0.619701         2.482555
 H         0.387431        -0.503413        -0.562156
 H         3.123447        -0.761492        -1.618972
