19
Iteration:  3851
 C         1.848372         2.214059        -0.530268
 C         1.930166         0.934619         0.394793
 C         2.189114         0.935404         1.834959
 C         2.305138        -0.617242         1.819259
 O         3.253781        -1.107526         2.712868
 C         0.987701        -1.202552         1.439337
 C         1.106446        -0.399234         0.157156
 C         2.621587        -0.391716         0.252297
 O         3.499474        -0.793438        -0.694208
 H         2.943626         2.517480        -0.617290
 H         1.591346         2.106433        -1.681819
 H         1.098584         3.015239        -0.157977
 H         3.156311         1.496461         1.987675
 H         1.494636         1.446621         2.417673
 H         2.888012        -1.393214         3.554817
 H         1.049775        -2.362419         1.181951
 H         0.154601        -1.053439         2.095686
 H         0.654729        -0.359064        -0.902932
 H         3.828546        -1.655731        -0.829698
