19
Iteration:   418charge 0 multiplicity 1
 C         1.859025         2.159064        -0.538667
 C         1.851962         0.958019         0.311616
 C         2.154326         1.014712         1.878625
 C         2.372825        -0.563449         1.760261
 O         3.289107        -1.060800         2.720040
 C         1.051684        -1.196010         1.617816
 C         1.061153        -0.570246         0.124457
 C         2.554859        -0.366139         0.140507
 O         3.454509        -0.933495        -0.716587
 H         1.771201         3.082530         0.059314
 H         2.748277         2.228337        -1.191826
 H         1.029229         2.252327        -1.173209
 H         3.151609         1.368258         1.929750
 H         1.480238         1.488361         2.675682
 H         3.762840        -0.314598         3.123761
 H         1.143085        -2.245348         1.542883
 H         0.182630        -0.900606         2.316743
 H         0.306390        -0.567630        -0.632917
 H         4.423036        -0.706268        -0.491807
