19
Iteration:  4449charge 0 multiplicity 1
 C         1.721291         2.054236        -0.652093
 C         1.906540         1.016630         0.393143
 C         2.076865         1.016334         2.034743
 C         2.409059        -0.559295         1.796491
 O         3.215925        -1.377058         2.457889
 C         0.866966        -1.063842         1.516901
 C         1.143708        -0.275134         0.166785
 C         2.635030        -0.328096         0.292146
 O         3.747697        -0.853052        -0.515254
 H         1.810284         2.924063        -0.115554
 H         2.518893         1.926723        -1.341020
 H         0.728560         2.031009        -1.080936
 H         3.015655         1.556769         2.285931
 H         1.160469         1.410803         2.679977
 H         4.042132        -1.332736         1.925624
 H         0.690227        -2.118293         1.512787
 H         0.245476        -0.607686         2.412486
 H         0.681247        -0.596337        -0.822592
 H         3.357552        -0.828692        -1.353682
