19
Iteration:   520charge 0 multiplicity 1
 C         1.705865         2.027333        -0.727995
 C         1.891693         0.934301         0.354040
 C         2.360470         1.009718         1.902938
 C         2.424094        -0.531867         1.778681
 O         3.214346        -1.246923         2.625524
 C         0.936567        -1.047371         1.603243
 C         0.942749        -0.422978         0.250965
 C         2.519379        -0.451174         0.170130
 O         3.654086        -0.806566        -0.581398
 H         0.750757         2.439551        -0.636096
 H         2.364359         2.824782        -0.581945
 H         1.886892         1.582225        -1.725347
 H         3.279928         1.541134         1.962747
 H         1.777113         1.435075         2.736561
 H         4.141384        -0.979600         2.699095
 H         0.949121        -2.199352         1.816750
 H         0.210955        -0.640475         2.425929
 H         0.220723        -0.317023        -0.587963
 H         3.925729        -0.038603        -1.042486
