19
Iteration:  2232
 C         1.977968         1.998734        -0.640814
 C         1.932734         0.929943         0.473142
 C         2.329934         0.991844         1.905954
 C         2.501172        -0.506427         1.731709
 O         3.347814        -1.299396         2.504698
 C         0.866838        -0.970699         1.556446
 C         0.853728        -0.192173         0.369665
 C         2.392336        -0.477435         0.176473
 O         3.471539        -0.845798        -0.684786
 H         2.608661         1.621024        -1.444891
 H         1.005800         2.233658        -1.073072
 H         2.310353         2.866109        -0.146943
 H         3.337004         1.312947         2.074833
 H         1.725065         1.377964         2.794220
 H         4.149614        -0.766679         2.772571
 H         0.825514        -2.025422         1.534119
 H         0.112156        -0.613644         2.328737
 H        -0.033445        -0.112556        -0.222513
 H         3.364772        -1.838453        -0.857478
