19
Iteration:  3009
 C         1.932936         2.164580        -0.572207
 C         1.917497         0.888203         0.373104
 C         2.235305         0.959690         1.835406
 C         2.333342        -0.573850         1.830346
 O         3.387676        -1.280138         2.549605
 C         0.831303        -1.000212         1.580235
 C         0.931126        -0.329825         0.170925
 C         2.545900        -0.492567         0.223443
 O         3.539199        -0.809155        -0.659289
 H         2.455878         3.066306        -0.309612
 H         2.301484         1.924657        -1.609245
 H         0.919390         2.628125        -0.514199
 H         3.222175         1.385641         2.078780
 H         1.480260         1.115136         2.682635
 H         3.825860        -0.540318         3.039549
 H         0.779124        -2.041966         1.558525
 H         0.076563        -0.632285         2.384859
 H         0.269679        -0.134235        -0.620312
 H         3.885289        -1.723451        -0.484105
