19
Iteration:  3730charge 0 multiplicity 1
 C         1.889759         2.075175        -0.660974
 C         1.952193         0.900732         0.321063
 C         2.234910         1.066795         1.839435
 C         2.382607        -0.525714         1.810502
 O         3.259336        -1.469191         2.503731
 C         0.853127        -0.984578         1.573620
 C         0.984900        -0.460200         0.234926
 C         2.511455        -0.387481         0.259646
 O         3.614763        -0.636547        -0.529013
 H         2.517350         2.954093        -0.380138
 H         2.304148         1.666199        -1.648519
 H         0.837356         2.386937        -0.907454
 H         3.120982         1.755017         1.928679
 H         1.516478         1.430906         2.587256
 H         3.833475        -0.950156         3.114304
 H         0.825314        -2.109273         1.709557
 H         0.231901        -0.427572         2.214531
 H         0.228817        -0.565311        -0.477844
 H         3.665939        -1.650973        -0.522080
