19
Iteration:  4530charge 0 multiplicity 1
 C         1.873806         2.197312        -0.455552
 C         1.905075         0.859839         0.309801
 C         2.154556         0.931552         1.908451
 C         2.401696        -0.582169         1.740747
 O         3.186403        -1.260712         2.780147
 C         0.976168        -0.990472         1.539674
 C         1.103325        -0.450240         0.129787
 C         2.612317        -0.448147         0.153372
 O         3.515589        -0.730055        -0.801693
 H         1.061260         2.672323         0.160046
 H         2.832569         2.675622        -0.137355
 H         1.640901         2.145448        -1.525375
 H         3.051459         1.659088         2.002418
 H         1.265591         1.260728         2.478787
 H         4.104889        -0.931719         2.830216
 H         0.779482        -2.134388         1.667087
 H         0.452342        -0.471706         2.320025
 H         0.424400        -0.520435        -0.741820
 H         3.603186        -1.699430        -0.876143
