19
Iteration:  3095
 C         1.775765         2.076925        -0.530189
 C         2.032640         0.926489         0.397999
 C         2.325717         0.976043         1.926996
 C         2.433721        -0.568753         1.828084
 O         3.056913        -1.225871         2.849203
 C         1.012884        -1.023793         1.535488
 C         1.076292        -0.352626         0.224978
 C         2.585393        -0.417187         0.093679
 O         3.505137        -0.809385        -0.929383
 H         2.591758         2.772600        -0.314735
 H         1.827820         1.678469        -1.567417
 H         0.812069         2.621594        -0.410463
 H         3.254613         1.464829         2.259358
 H         1.359984         1.209094         2.486009
 H         4.033668        -1.038566         2.835272
 H         0.938749        -2.106074         1.267182
 H         0.284283        -0.523303         2.238271
 H         0.218999        -0.167244        -0.358926
 H         3.547947        -1.734411        -1.122384
