19
Iteration:   172charge 0 multiplicity 1
 C         1.773277         2.076040        -0.617796
 C         1.880970         0.942478         0.389496
 C         2.382425         1.017836         1.886253
 C         2.474990        -0.434170         1.805089
 O         3.199467        -1.259281         2.655051
 C         1.018371        -1.062401         1.566155
 C         0.966194        -0.463112         0.252587
 C         2.514152        -0.367338         0.167089
 O         3.459404        -0.908487        -0.726896
 H         1.357858         1.756286        -1.591308
 H         1.165901         2.973335        -0.478048
 H         2.816903         2.480352        -0.937135
 H         3.411388         1.503120         1.684337
 H         1.766941         1.418605         2.689375
 H         3.841789        -0.698824         3.170080
 H         1.073533        -2.239160         1.536272
 H         0.132886        -0.611123         2.283722
 H         0.187046        -0.424016        -0.408244
 H         4.343695        -0.977261        -0.433597
