19
Iteration:  4375
 C         1.764978         2.148852        -0.490634
 C         1.978565         0.931517         0.405008
 C         2.175719         0.984576         1.963204
 C         2.402815        -0.596927         1.837347
 O         3.100721        -1.278597         2.823338
 C         0.987589        -1.166046         1.397537
 C         1.125118        -0.414080         0.028919
 C         2.642214        -0.363497         0.160183
 O         3.619845        -0.685581        -0.804464
 H         2.731231         2.681869        -0.621242
 H         1.207963         1.811473        -1.460999
 H         1.061340         2.735698         0.174802
 H         3.130075         1.480155         2.308312
 H         1.378757         1.348757         2.582917
 H         3.635261        -0.563385         3.223033
 H         0.972441        -2.284066         1.360566
 H         0.060197        -0.932057         1.926173
 H         0.462723        -0.451005        -0.840648
 H         3.684813        -1.674031        -0.822118
