19
Iteration:  3749
 C         1.815531         2.003932        -0.771966
 C         1.864576         1.009843         0.419901
 C         2.246902         0.976451         1.930396
 C         2.385469        -0.612715         1.788053
 O         3.159999        -1.397580         2.584360
 C         0.957014        -1.033023         1.638892
 C         1.055446        -0.250850         0.173482
 C         2.548433        -0.323326         0.228240
 O         3.641436        -0.720706        -0.558639
 H         2.468415         2.897825        -0.592703
 H         2.031775         1.468359        -1.746150
 H         0.808056         2.511766        -0.864173
 H         3.223610         1.316641         2.113494
 H         1.472135         1.384822         2.524773
 H         4.098105        -1.057929         2.616368
 H         0.896099        -2.125700         1.396299
 H         0.254938        -0.714500         2.406105
 H         0.457455        -0.269775        -0.724053
 H         3.756963        -1.742278        -0.664234
