19
Iteration:  1987
 C         1.804212         2.067242        -0.582504
 C         1.997596         0.971713         0.479776
 C         2.552166         1.081065         1.886080
 C         2.432073        -0.593285         1.792210
 O         3.220411        -1.387883         2.517751
 C         0.906068        -0.853024         1.664941
 C         0.968579        -0.298489         0.292247
 C         2.513790        -0.395756         0.203169
 O         3.373869        -0.940921        -0.754874
 H         0.789559         1.832744        -0.852156
 H         1.943541         3.028873        -0.181866
 H         2.409986         2.045119        -1.398385
 H         3.628936         1.460696         1.900209
 H         1.849471         1.651801         2.532211
 H         4.101036        -1.458296         2.166799
 H         0.699656        -1.943069         1.914071
 H         0.319804        -0.298700         2.374840
 H         0.335691        -0.079225        -0.528442
 H         3.090047        -1.721373        -1.208785
