19
Iteration:  1505
 C         1.939023         1.987435        -0.603899
 C         1.864759         0.955337         0.459275
 C         2.554124         1.037783         1.722301
 C         2.518654        -0.567365         1.807951
 O         3.261850        -1.423697         2.553442
 C         1.072329        -0.852806         1.807388
 C         0.896092        -0.222165         0.410198
 C         2.371323        -0.494660         0.198044
 O         3.195204        -0.812559        -0.868568
 H         1.189644         2.795145        -0.684916
 H         2.935260         2.495082        -0.645409
 H         1.857638         1.654485        -1.648985
 H         3.572188         1.318789         1.653181
 H         2.126459         1.673660         2.587175
 H         4.186060        -1.081780         2.639143
 H         1.081047        -1.996581         1.710478
 H         0.326512        -0.426811         2.594035
 H        -0.025984        -0.063623        -0.286826
 H         3.598810        -1.699366        -0.739789
