19
Iteration:  4502
 C         1.927909         2.225937        -0.505219
 C         1.805770         0.959144         0.379270
 C         2.229022         0.975094         1.907001
 C         2.281775        -0.541596         1.808582
 O         3.252177        -1.176554         2.604118
 C         0.931721        -1.209747         1.439512
 C         1.040948        -0.431506         0.185645
 C         2.553433        -0.401476         0.230291
 O         3.610058        -0.821266        -0.589002
 H         1.593503         3.109012         0.066168
 H         2.982465         2.237691        -0.672118
 H         1.312745         2.139947        -1.416803
 H         3.223080         1.279176         1.871611
 H         1.594334         1.525800         2.605952
 H         4.131177        -1.017149         2.160851
 H         1.223302        -2.207360         1.321978
 H         0.103934        -1.156247         2.197649
 H         0.305080        -0.485297        -0.683671
 H         3.257735        -1.351275        -1.271354
