19
Iteration:   688charge 0 multiplicity 1
 C         1.710681         2.019831        -0.625710
 C         1.936290         0.956273         0.345680
 C         2.425592         0.996900         1.755746
 C         2.449518        -0.505374         1.840955
 O         3.245303        -1.280115         2.591229
 C         0.927046        -1.002413         1.677841
 C         1.021181        -0.397079         0.261975
 C         2.495363        -0.462414         0.211992
 O         3.503661        -0.876590        -0.613295
 H         2.504767         2.129163        -1.388313
 H         0.841797         2.072364        -1.229739
 H         1.720127         2.958524        -0.127063
 H         3.522641         1.331025         1.885779
 H         1.886795         1.686849         2.493893
 H         4.092731        -0.816212         2.720256
 H         0.633516        -2.145619         1.700428
 H         0.294180        -0.296472         2.331714
 H         0.174050        -0.423825        -0.575686
 H         3.529978        -0.255466        -1.319621
