19
Iteration:  2239
 C         1.968451         2.003355        -0.684344
 C         1.929850         0.962620         0.395663
 C         2.372848         0.931936         1.946226
 C         2.412761        -0.554921         1.760284
 O         3.350510        -1.289703         2.589447
 C         0.856538        -1.009977         1.618290
 C         0.894156        -0.124431         0.358524
 C         2.447605        -0.463302         0.175960
 O         3.452098        -0.827012        -0.760078
 H         2.540066         1.658472        -1.638032
 H         0.923369         2.268979        -0.986145
 H         2.331291         2.931907        -0.184524
 H         3.356980         1.379348         2.185739
 H         1.722277         1.300031         2.674627
 H         4.200749        -0.806365         2.792170
 H         0.850009        -2.109198         1.422079
 H         0.124764        -0.781991         2.361839
 H        -0.065041        -0.133268        -0.254116
 H         3.359180        -1.765311        -0.740662
