19
Iteration:  4008charge 0 multiplicity 1
 C         1.829738         2.193188        -0.451329
 C         1.862201         0.935810         0.415863
 C         2.039160         0.958721         1.895029
 C         2.403933        -0.543442         1.834685
 O         3.197404        -1.144821         2.825524
 C         1.120867        -1.210187         1.342757
 C         1.200456        -0.393701         0.083368
 C         2.708560        -0.334099         0.196748
 O         3.510685        -0.879634        -0.793286
 H         3.004884         2.397791        -0.463484
 H         1.427274         1.914845        -1.466846
 H         1.324570         3.190429         0.042559
 H         2.946096         1.524456         2.018942
 H         1.277202         1.248656         2.603861
 H         2.669476        -0.882332         3.612337
 H         1.197365        -2.195984         1.000022
 H         0.177140        -0.987088         2.017454
 H         0.547567        -0.433867        -0.796497
 H         2.903641        -1.642563        -1.135072
