19
Iteration:  3112charge 0 multiplicity 1
 C         1.871200         2.081153        -0.528780
 C         1.937702         0.907400         0.437124
 C         2.280951         0.911504         1.912570
 C         2.395500        -0.604824         1.787439
 O         3.219441        -1.214371         2.743851
 C         0.880291        -0.989102         1.580443
 C         1.013297        -0.287881         0.156351
 C         2.578192        -0.517374         0.130674
 O         3.533365        -0.763820        -0.857325
 H         2.806431         2.674573        -0.657306
 H         1.487860         1.825386        -1.518829
 H         1.050729         2.736805        -0.207672
 H         3.283710         1.380030         2.081300
 H         1.631258         1.275253         2.674238
 H         3.736831        -0.456797         3.104979
 H         0.795420        -2.107276         1.559892
 H         0.210512        -0.571440         2.309715
 H         0.507976        -0.413008        -0.822951
 H         3.730616        -1.687464        -0.668217
