19
Iteration:  2445
 C         1.841000         2.143975        -0.636466
 C         1.952304         0.988542         0.329185
 C         2.308618         1.025489         1.875032
 C         2.415385        -0.661528         1.841934
 O         3.189861        -1.376844         2.706749
 C         0.957028        -1.012643         1.607397
 C         1.017255        -0.331690         0.301839
 C         2.561244        -0.411517         0.177518
 O         3.498031        -0.771955        -0.758174
 H         1.193246         3.022022        -0.366885
 H         2.887305         2.425898        -0.911148
 H         1.404256         1.798835        -1.629768
 H         3.379163         1.388150         1.782435
 H         1.613185         1.582070         2.609277
 H         4.031623        -0.938084         2.915108
 H         0.667013        -2.143882         1.387669
 H         0.265553        -0.586990         2.443467
 H         0.246265        -0.461659        -0.388097
 H         3.443796        -1.579052        -1.217551
