19
Iteration:  4767charge 0 multiplicity 1
 C         1.715386         2.142028        -0.501520
 C         1.880451         0.903722         0.375468
 C         2.427908         0.855420         1.814557
 C         2.365328        -0.639150         1.858976
 O         3.210088        -1.134587         2.839537
 C         0.925294        -1.132363         1.426287
 C         0.993399        -0.331902         0.151388
 C         2.565290        -0.409819         0.114947
 O         3.641409        -0.681976        -0.750435
 H         1.342692         3.042267        -0.022770
 H         2.716574         2.461383        -0.926359
 H         1.089253         1.802702        -1.380829
 H         3.444634         1.247665         1.689476
 H         2.075631         1.460630         2.606723
 H         2.723753        -1.900970         3.239334
 H         1.099177        -2.109386         1.118987
 H         0.006876        -1.076903         2.000938
 H         0.126104        -0.077950        -0.585208
 H         4.051989        -1.413135        -0.291885
