19
Iteration:  1278
 C         1.875348         1.950595        -0.756655
 C         1.862499         0.976795         0.443895
 C         2.466517         1.111445         1.836673
 C         2.458614        -0.595374         1.857571
 O         3.369936        -1.411680         2.573803
 C         0.885540        -0.947776         1.754584
 C         0.936645        -0.242194         0.357681
 C         2.454696        -0.398244         0.258063
 O         3.379367        -0.784419        -0.794413
 H         1.302060         1.446293        -1.585975
 H         1.369207         2.954663        -0.585159
 H         2.943218         2.090135        -1.050901
 H         3.617470         1.348218         1.866929
 H         1.864373         1.657084         2.473077
 H         4.313471        -1.095847         2.418645
 H         0.572892        -2.012135         1.717994
 H         0.086025        -0.481912         2.373683
 H         0.240691        -0.271454        -0.418765
 H         3.193381        -1.742732        -0.942523
