19
Iteration:  4376charge 0 multiplicity 1
 C         1.754411         2.155176        -0.491559
 C         1.974086         0.922648         0.403389
 C         2.179808         0.981712         1.957098
 C         2.395661        -0.597334         1.834900
 O         3.096626        -1.276312         2.824156
 C         0.989627        -1.166280         1.398605
 C         1.118808        -0.409906         0.035967
 C         2.646489        -0.364487         0.156034
 O         3.627259        -0.687901        -0.796893
 H         2.750258         2.680900        -0.588814
 H         1.232540         1.815077        -1.471653
 H         1.061265         2.754534         0.160828
 H         3.147902         1.449968         2.281702
 H         1.409336         1.346644         2.561475
 H         3.658212        -0.563445         3.207023
 H         0.970072        -2.305775         1.356498
 H         0.102955        -0.941875         1.929076
 H         0.470608        -0.404984        -0.801579
 H         3.684739        -1.642928        -0.851969
