19
Iteration:     7charge 0 multiplicity 1
 C         1.793579         2.030134        -0.625495
 C         1.923888         0.927194         0.367381
 C         2.304241         1.014736         1.872337
 C         2.364808        -0.538396         1.804303
 O         3.355683        -1.227048         2.575929
 C         0.950245        -1.042817         1.642561
 C         1.117269        -0.380480         0.240704
 C         2.555806        -0.387750         0.193871
 O         3.460037        -0.798450        -0.705937
 H         1.628030         1.641941        -1.651565
 H         0.861273         2.652051        -0.548298
 H         2.594749         2.875417        -0.720519
 H         3.188861         1.755728         1.933594
 H         1.480983         1.368541         2.524511
 H         2.977474        -1.062983         3.462379
 H         0.709076        -2.144150         1.656005
 H         0.245188        -0.695900         2.425508
 H         0.412574        -0.616379        -0.543847
 H         3.516487        -1.817984        -0.656632
