19
Iteration:  1337charge 0 multiplicity 1
 C         1.872717         2.080486        -0.645320
 C         1.850602         0.931077         0.343865
 C         2.536571         1.010376         1.785872
 C         2.481015        -0.495651         1.947541
 O         3.240362        -1.355273         2.722536
 C         1.037394        -0.968189         1.724665
 C         0.952738        -0.273977         0.334920
 C         2.487849        -0.485069         0.163910
 O         3.280651        -0.847477        -0.887543
 H         2.363895         2.093011        -1.632798
 H         0.800440         2.302511        -0.902367
 H         2.283720         3.033246        -0.173694
 H         3.532683         1.243468         1.522332
 H         2.269529         1.817918         2.548303
 H         4.177913        -1.082554         2.818862
 H         0.956113        -2.049416         1.526999
 H         0.084759        -0.453121         2.333822
 H         0.210378        -0.468896        -0.499615
 H         3.122172        -1.768674        -1.009219
