19
Iteration:  4945
 C         1.819163         2.142762        -0.533486
 C         1.979032         0.954399         0.356740
 C         2.372847         0.995310         1.917940
 C         2.370090        -0.618720         1.794087
 O         3.133321        -1.332925         2.721941
 C         0.910878        -1.080299         1.461296
 C         1.107777        -0.305843         0.157622
 C         2.553028        -0.422726         0.189491
 O         3.472406        -0.838535        -0.754106
 H         0.842636         2.544578        -0.109858
 H         2.650223         2.891663        -0.383793
 H         1.569803         1.795843        -1.553873
 H         3.470767         1.392649         2.176849
 H         1.759998         1.266487         2.752813
 H         3.745763        -0.730023         3.187582
 H         0.971782        -2.193948         1.307436
 H         0.155947        -0.832225         2.158093
 H         0.406507        -0.221744        -0.730114
 H         4.147458        -0.143686        -0.666161
