19
Iteration:  4998
 C         2.058153         2.099119        -0.420395
 C         1.873691         0.903796         0.404856
 C         2.064693         1.036380         1.903666
 C         2.428095        -0.579998         1.803227
 O         3.164029        -1.320643         2.648662
 C         1.003797        -1.031102         1.491594
 C         1.077538        -0.415119         0.144414
 C         2.558974        -0.401050         0.207508
 O         3.503135        -0.712050        -0.735640
 H         2.143088         3.040942         0.110588
 H         2.996372         1.969054        -1.021884
 H         1.204703         2.097595        -1.107875
 H         2.970161         1.641854         2.040428
 H         1.224849         1.276999         2.552245
 H         4.084643        -0.997934         2.694376
 H         1.047462        -2.161587         1.466458
 H         0.188798        -0.799682         2.207891
 H         0.420507        -0.658583        -0.765787
 H         3.035577        -1.211915        -1.445546
