19
Iteration:  2069
 C         1.958245         2.121080        -0.569815
 C         2.010122         0.958436         0.392265
 C         2.459187         0.949274         1.819082
 C         2.420997        -0.630217         1.797026
 O         3.374373        -1.268828         2.628986
 C         0.832993        -1.012969         1.680215
 C         0.966090        -0.274860         0.272086
 C         2.414830        -0.447643         0.186706
 O         3.247899        -0.850867        -0.796581
 H         1.747344         3.054940        -0.104459
 H         2.990964         2.387262        -0.901038
 H         1.321486         1.957260        -1.469982
 H         3.470306         1.329946         1.787434
 H         1.880322         1.512329         2.582067
 H         4.004320        -0.621824         2.965515
 H         0.771711        -2.087284         1.574690
 H         0.127438        -0.594214         2.486775
 H         0.246115        -0.217813        -0.588371
 H         3.498233        -1.751464        -0.830810
