19
Iteration:   552
 C         1.827064         2.101471        -0.562618
 C         1.790083         0.878561         0.335124
 C         2.261305         1.025654         1.738904
 C         2.491919        -0.467601         1.817898
 O         3.369377        -1.246794         2.600335
 C         0.832588        -1.059224         1.599723
 C         1.007176        -0.441277         0.253289
 C         2.511407        -0.439130         0.252011
 O         3.530688        -0.895440        -0.626217
 H         0.854656         2.149007        -0.979327
 H         2.233763         2.939973        -0.015544
 H         2.535100         1.749131        -1.352369
 H         3.150804         1.605720         1.717655
 H         1.468747         1.533262         2.495104
 H         3.974648        -0.552621         2.988880
 H         0.895492        -2.165006         1.671417
 H         0.106812        -0.524068         2.180134
 H         0.491579        -0.560686        -0.758540
 H         3.999589        -0.077467        -0.988279
