19
Iteration:  4802charge 0 multiplicity 1
 C         1.899593         2.093906        -0.642600
 C         1.921569         0.938093         0.451274
 C         2.142904         0.949871         1.991560
 C         2.393703        -0.527693         1.866976
 O         3.235105        -1.238035         2.639355
 C         1.000603        -1.069079         1.508879
 C         1.105934        -0.398700         0.161088
 C         2.575921        -0.352210         0.243707
 O         3.446159        -0.754967        -0.774346
 H         1.161619         2.891615        -0.416349
 H         2.977921         2.428498        -0.769487
 H         1.574460         1.711987        -1.651815
 H         3.113149         1.551633         2.092507
 H         1.333533         1.121506         2.628358
 H         3.177440        -2.213534         2.459209
 H         1.140200        -2.162377         1.396979
 H         0.208102        -0.925922         2.203000
 H         0.358158        -0.336111        -0.572614
 H         4.342226        -0.764656        -0.425064
