19
Iteration:  4036
 C         1.804201         2.253210        -0.513180
 C         2.006278         0.937807         0.354651
 C         2.169742         0.965660         1.861332
 C         2.360765        -0.562738         1.809246
 O         3.089707        -1.204065         2.796848
 C         1.014324        -1.278408         1.434480
 C         1.112617        -0.445422         0.136009
 C         2.611584        -0.352094         0.164387
 O         3.610394        -0.764916        -0.696106
 H         2.749389         2.642270        -0.711333
 H         1.259668         2.184020        -1.439916
 H         1.314240         2.890495         0.112758
 H         3.126846         1.528548         2.165193
 H         1.374440         1.290272         2.587495
 H         3.659596        -0.451791         3.021114
 H         1.144113        -2.373834         1.061460
 H         0.169083        -1.215018         2.060888
 H         0.448727        -0.485858        -0.686163
 H         3.373583        -1.703434        -0.989150
