19
Iteration:   868charge 0 multiplicity 1
 C         1.844182         2.049888        -0.673153
 C         1.944106         0.965798         0.367660
 C         2.447433         1.063654         1.812211
 C         2.399212        -0.571407         1.806389
 O         3.324502        -1.288850         2.682056
 C         0.960329        -0.907820         1.808095
 C         0.942547        -0.358353         0.387257
 C         2.487220        -0.360278         0.144694
 O         3.354462        -0.934611        -0.886544
 H         0.821386         2.148579        -0.909306
 H         2.237874         3.002605        -0.354673
 H         2.232822         1.853476        -1.644178
 H         3.581366         1.365434         2.064862
 H         1.740327         1.450783         2.562721
 H         4.241163        -1.216520         2.449798
 H         0.755254        -1.962580         1.646429
 H         0.130608        -0.535085         2.517146
 H         0.241079        -0.272299        -0.519323
 H         3.622543        -1.820378        -0.626765
