19
Iteration:   435
 C         1.832296         2.145591        -0.508481
 C         1.821382         0.854646         0.326881
 C         2.201128         0.995933         1.740830
 C         2.445240        -0.516508         1.862664
 O         3.308103        -1.061852         2.794865
 C         0.980383        -1.141330         1.487047
 C         1.010104        -0.421728         0.203988
 C         2.488591        -0.502415         0.150274
 O         3.508384        -0.882451        -0.732219
 H         1.725018         3.094945         0.122304
 H         2.746242         2.242605        -1.150454
 H         0.933861         2.317930        -1.221115
 H         3.153321         1.635972         2.003460
 H         1.335162         1.172480         2.365427
 H         4.171988        -0.631033         2.833421
 H         1.170347        -2.274261         1.313579
 H         0.256933        -0.950081         2.262763
 H         0.448750        -0.774626        -0.653523
 H         4.410096        -0.682774        -0.282778
