19
Iteration:   991
 C         1.750452         2.172432        -0.559934
 C         1.953827         0.957508         0.309850
 C         2.622934         1.023200         1.716412
 C         2.484138        -0.502724         1.787531
 O         3.186209        -1.255817         2.800078
 C         1.051261        -0.970769         1.675516
 C         1.033759        -0.338153         0.338537
 C         2.546827        -0.403112         0.138125
 O         3.176932        -1.025875        -0.861592
 H         2.027177         2.189563        -1.562451
 H         0.714115         2.421593        -0.625690
 H         2.219664         3.106385        -0.187228
 H         3.760104         1.344111         1.703779
 H         1.904651         1.520250         2.444509
 H         4.127584        -1.294359         2.768492
 H         0.987720        -2.114591         1.735680
 H         0.533259        -0.569634         2.580694
 H         0.257788        -0.415331        -0.337621
 H         3.102584        -1.927670        -0.658257
