19
Iteration:  1305charge 0 multiplicity 1
 C         1.848059         1.829815        -0.793893
 C         2.027233         0.950054         0.446551
 C         2.447001         0.987568         1.967214
 C         2.530393        -0.560543         1.767582
 O         3.205120        -1.347137         2.575285
 C         1.049408        -0.885508         1.758049
 C         0.989672        -0.223362         0.368024
 C         2.436080        -0.417713         0.211244
 O         3.303821        -0.723070        -0.826460
 H         1.830214         1.211596        -1.695721
 H         0.892299         2.388229        -0.712368
 H         2.524165         2.707021        -0.959192
 H         3.369020         1.409418         2.239605
 H         1.638413         1.365080         2.709029
 H         4.185287        -1.212033         2.575462
 H         0.633920        -1.884037         1.914934
 H         0.369822        -0.212823         2.496239
 H         0.158054        -0.145203        -0.382387
 H         3.093677        -1.648707        -1.111217
