19
Iteration:  3592charge 0 multiplicity 1
 C         1.790946         2.139356        -0.472975
 C         1.923084         0.927834         0.327669
 C         2.385408         0.970748         1.704807
 C         2.360029        -0.513944         1.744156
 O         3.131664        -1.159807         2.710089
 C         0.962252        -1.023797         1.591694
 C         0.963702        -0.419384         0.161085
 C         2.520016        -0.505990         0.121576
 O         3.646779        -0.902909        -0.523620
 H         2.764096         2.705822        -0.770335
 H         1.322091         1.841631        -1.434515
 H         1.065022         2.812281         0.082822
 H         3.456330         1.259271         1.896886
 H         1.682489         1.360612         2.491523
 H         4.015362        -1.401004         2.358521
 H         1.005379        -2.089328         1.529214
 H         0.270015        -0.500737         2.356556
 H         0.155919        -0.406285        -0.507475
 H         3.713710        -0.465634        -1.360450
