19
Iteration:  4330
 C         1.963359         2.133765        -0.598453
 C         1.851010         0.954978         0.424198
 C         2.047055         0.973262         1.934400
 C         2.350060        -0.595468         1.806940
 O         3.271561        -1.272575         2.706830
 C         0.968772        -1.209352         1.450903
 C         1.060497        -0.394766         0.186146
 C         2.593722        -0.319066         0.187047
 O         3.603149        -0.655572        -0.780361
 H         2.958181         2.150158        -1.071390
 H         1.064125         2.047506        -1.334898
 H         1.843028         3.069921         0.056868
 H         2.919985         1.594838         2.190099
 H         1.213278         1.192089         2.609723
 H         2.885128        -1.198738         3.596794
 H         1.027838        -2.230515         1.136836
 H         0.224855        -1.218532         2.294542
 H         0.523374        -0.595281        -0.820813
 H         4.108145        -1.455875        -0.428086
