19
Iteration:  1656
 C         1.845846         1.977545        -0.710423
 C         2.039341         1.020209         0.433954
 C         2.523510         0.937936         1.904966
 C         2.432365        -0.589992         1.811482
 O         3.337490        -1.466533         2.461320
 C         0.978156        -0.776148         1.833545
 C         0.959206        -0.169824         0.428367
 C         2.409932        -0.401768         0.164387
 O         3.222521        -0.865858        -0.857022
 H         1.044440         2.759266        -0.590689
 H         2.755135         2.651347        -0.889941
 H         1.697702         1.311407        -1.611643
 H         3.610995         1.105704         2.028659
 H         1.861892         1.498803         2.599729
 H         4.247879        -1.054599         2.583002
 H         0.567788        -1.805015         1.751782
 H         0.253023        -0.177510         2.504560
 H        -0.028410        -0.185539        -0.146771
 H         3.535935        -1.748706        -0.546382
