19
Iteration:  4639charge 0 multiplicity 1
 C         1.995121         2.114872        -0.454854
 C         1.828521         0.856611         0.321951
 C         2.082968         1.052585         1.904041
 C         2.365980        -0.544247         1.756439
 O         3.312856        -1.263245         2.521210
 C         0.904983        -1.010220         1.610015
 C         1.079233        -0.482736         0.155187
 C         2.580382        -0.404189         0.276690
 O         3.517154        -0.740675        -0.629555
 H         1.197869         2.568657        -1.031446
 H         2.366299         2.954669         0.154988
 H         2.713068         2.143384        -1.272204
 H         3.159576         1.511928         1.905150
 H         1.281844         1.414367         2.608905
 H         3.990153        -1.522287         1.892038
 H         0.643479        -2.152271         1.783530
 H         0.318308        -0.408444         2.323613
 H         0.521884        -0.725953        -0.809441
 H         3.252654        -1.694279        -0.897312
