19
Iteration:  4908charge 0 multiplicity 1
 C         1.709764         2.190183        -0.563106
 C         1.959731         0.994305         0.408253
 C         2.265085         1.038518         1.968104
 C         2.454865        -0.554498         1.766119
 O         3.106795        -1.512040         2.589217
 C         0.964498        -0.916905         1.602330
 C         1.175080        -0.418325         0.139631
 C         2.667326        -0.353008         0.136210
 O         3.515747        -0.862814        -0.724656
 H         0.662175         2.347237        -0.608953
 H         1.979308         3.173514        -0.186354
 H         2.040764         2.185574        -1.603377
 H         3.113537         1.686791         2.147634
 H         1.448631         1.206171         2.745897
 H         3.800416        -1.006475         3.111967
 H         0.656853        -1.933885         1.673925
 H         0.171871        -0.300098         2.187672
 H         0.572710        -0.483156        -0.724904
 H         4.012294        -1.635717        -0.321879
