19
Iteration:  4077
 C         1.747796         2.035828        -0.592552
 C         1.859384         0.857370         0.324668
 C         2.222097         1.020221         2.028208
 C         2.349866        -0.525573         1.812111
 O         3.189479        -1.341438         2.628944
 C         0.846182        -0.975108         1.470111
 C         1.060171        -0.524530         0.093873
 C         2.627503        -0.390206         0.208533
 O         3.780382        -0.573981        -0.579460
 H         2.699357         2.621931        -0.461933
 H         1.713925         1.608772        -1.634413
 H         0.861832         2.783966        -0.422465
 H         3.169296         1.538440         2.153749
 H         1.481202         1.429264         2.776765
 H         3.772718        -1.941920         2.112506
 H         0.747268        -2.057512         1.689162
 H         0.099833        -0.315646         2.017360
 H         0.257463        -0.451882        -0.658190
 H         3.902226        -1.521482        -0.744653
