19
Iteration:  2583charge 0 multiplicity 1
 C         1.823852         2.035425        -0.664710
 C         2.018809         0.999396         0.406988
 C         2.222876         0.999498         1.962535
 C         2.353510        -0.608790         1.753130
 O         3.241477        -1.323010         2.515537
 C         0.926642        -1.029313         1.547620
 C         0.979645        -0.277253         0.197497
 C         2.504493        -0.360760         0.228555
 O         3.636284        -0.765828        -0.509741
 H         2.711342         2.468143        -0.971087
 H         1.318039         1.577198        -1.487875
 H         1.192765         2.850348        -0.322910
 H         3.153942         1.537507         2.265064
 H         1.364715         1.398830         2.575127
 H         4.067273        -1.595281         2.029552
 H         0.967091        -2.081045         1.473944
 H         0.308751        -0.695215         2.349523
 H         0.310651        -0.393137        -0.635859
 H         3.380309        -1.721249        -0.786802
