19
Iteration:  3685
 C         1.943058         2.097726        -0.600567
 C         1.885731         0.942075         0.348427
 C         2.281785         0.955752         1.874360
 C         2.375510        -0.587548         1.765122
 O         3.364653        -1.150219         2.698425
 C         0.910820        -1.090892         1.568525
 C         0.954730        -0.386087         0.142264
 C         2.475744        -0.400415         0.162290
 O         3.540171        -0.768944        -0.671717
 H         2.681581         2.826947        -0.216578
 H         2.273139         1.933360        -1.677103
 H         0.907824         2.538664        -0.584444
 H         3.239909         1.351851         2.200754
 H         1.570604         1.411943         2.555439
 H         2.828123        -1.588664         3.392087
 H         0.810493        -2.197057         1.314768
 H         0.209986        -0.710838         2.250537
 H         0.200663        -0.466916        -0.639921
 H         3.652165        -1.734511        -0.398842
