19
Iteration:  3816charge 0 multiplicity 1
 C         1.859106         2.239441        -0.414822
 C         1.814011         0.920075         0.334306
 C         2.113854         0.948299         1.850826
 C         2.414457        -0.578301         1.798594
 O         3.222387        -1.078985         2.842826
 C         0.993911        -1.071299         1.498658
 C         1.130034        -0.487058         0.117578
 C         2.617059        -0.416523         0.092781
 O         3.615914        -0.881144        -0.759165
 H         2.924210         2.563399        -0.491351
 H         1.382370         2.252303        -1.462992
 H         1.517061         3.122899         0.193746
 H         2.902020         1.655584         1.936412
 H         1.210151         1.249333         2.277665
 H         3.115811        -2.043797         2.827135
 H         0.943870        -2.233872         1.507974
 H         0.247724        -0.722930         2.183609
 H         0.505901        -0.437745        -0.756331
 H         3.310338        -1.676384        -1.131744
