19
Iteration:  1379
 C         1.809600         2.177976        -0.392863
 C         2.009851         0.917733         0.344302
 C         2.447503         0.988001         1.811703
 C         2.395041        -0.531024         1.796250
 O         3.319462        -1.165027         2.678551
 C         0.987870        -0.873791         1.685028
 C         0.988700        -0.278746         0.297804
 C         2.506982        -0.526197         0.089839
 O         3.304945        -1.131977        -0.969957
 H         2.706068         2.437298        -1.008247
 H         0.931858         2.391083        -1.089787
 H         1.591184         3.040607         0.301376
 H         3.523320         1.210039         2.131633
 H         1.747774         1.482978         2.486887
 H         3.972256        -0.496553         2.805862
 H         0.870783        -1.935072         1.785973
 H         0.513837        -0.469960         2.563990
 H        -0.003286        -0.246742        -0.304556
 H         3.180531        -2.142553        -0.855411
