19
Iteration:  4316charge 0 multiplicity 1
 C         1.951427         2.102774        -0.503907
 C         1.860530         0.947884         0.399706
 C         2.184750         0.916513         1.895388
 C         2.386309        -0.551875         1.789502
 O         3.275397        -1.198422         2.635290
 C         1.022226        -1.231024         1.424499
 C         0.956651        -0.433688         0.087450
 C         2.475970        -0.394158         0.162637
 O         3.598455        -0.591223        -0.584665
 H         2.839013         1.999511        -1.102157
 H         1.241728         2.080445        -1.291352
 H         1.992511         3.140038        -0.230982
 H         3.130690         1.388741         2.162804
 H         1.283829         1.346202         2.524406
 H         2.809683        -1.442621         3.468780
 H         1.293141        -2.246215         1.284937
 H         0.015579        -1.015501         1.994457
 H         0.186779        -0.481362        -0.672891
 H         3.948227        -1.384754        -0.259617
