19
Iteration:  2439
 C         1.843590         2.131776        -0.661988
 C         1.966857         0.974843         0.393876
 C         2.317999         0.978192         1.875819
 C         2.407643        -0.643371         1.836673
 O         3.221325        -1.354894         2.661313
 C         0.941422        -1.040334         1.632505
 C         0.994380        -0.314039         0.226630
 C         2.495577        -0.389219         0.169512
 O         3.503769        -0.768953        -0.693944
 H         1.214979         2.968063        -0.350373
 H         2.824703         2.590661        -0.817542
 H         1.571622         1.694446        -1.597316
 H         3.362945         1.377767         1.754119
 H         1.902423         1.636487         2.621007
 H         4.022543        -0.858354         2.818871
 H         0.717352        -2.039953         1.505012
 H         0.298193        -0.596600         2.348033
 H         0.201232        -0.462628        -0.564572
 H         3.442081        -1.688887        -1.112076
