19
Iteration:  1479
 C         1.956380         1.972182        -0.668006
 C         1.862249         0.922687         0.420688
 C         2.661546         0.976395         1.840866
 C         2.483809        -0.624142         1.795998
 O         3.317256        -1.358500         2.489930
 C         0.864420        -0.791743         1.879007
 C         0.831792        -0.350810         0.408545
 C         2.389068        -0.457012         0.212074
 O         3.294400        -0.710525        -0.812149
 H         1.655945         3.042364        -0.540354
 H         2.929614         2.008222        -1.194488
 H         1.335724         1.824571        -1.603747
 H         3.671130         1.460663         1.755077
 H         2.125325         1.522567         2.661744
 H         4.208305        -1.227917         2.054289
 H         0.653253        -1.806722         1.962266
 H         0.275489        -0.221856         2.444612
 H         0.162167        -0.591541        -0.318726
 H         3.367083        -1.660293        -0.977578
