19
Iteration:  1625
 C         1.813557         2.085647        -0.511378
 C         1.979349         0.998779         0.448942
 C         2.603764         1.014167         1.789503
 C         2.506607        -0.536944         1.744888
 O         3.328405        -1.391141         2.446741
 C         0.915813        -0.809700         1.741279
 C         0.991008        -0.198999         0.386941
 C         2.433114        -0.466715         0.203995
 O         3.216308        -1.027625        -0.747379
 H         0.762112         2.447446        -0.710276
 H         2.457203         2.994670        -0.233659
 H         2.139272         1.836462        -1.552832
 H         3.653084         1.286796         1.767727
 H         2.022548         1.663122         2.579568
 H         4.234834        -1.111119         2.379107
 H         0.636568        -1.864631         1.599421
 H         0.189493        -0.302109         2.282070
 H         0.160038        -0.333234        -0.327800
 H         2.880395        -1.943106        -0.869916
