19
Iteration:  3381
 C         1.820817         2.070337        -0.662621
 C         1.885777         1.012625         0.342258
 C         2.290460         1.006655         1.872013
 C         2.415527        -0.547058         1.720585
 O         3.276266        -1.411139         2.504332
 C         0.876979        -0.910737         1.672103
 C         0.951485        -0.359563         0.208641
 C         2.492423        -0.351816         0.144482
 O         3.641228        -0.909207        -0.372952
 H         2.777414         2.578408        -0.888845
 H         1.590496         1.524451        -1.624241
 H         1.150169         2.910429        -0.421949
 H         3.177033         1.558102         2.111378
 H         1.513200         1.259016         2.564326
 H         4.196079        -1.197791         2.237981
 H         0.751348        -1.993278         1.504994
 H         0.208173        -0.443207         2.408799
 H         0.191134        -0.509387        -0.547257
 H         3.737359        -0.599091        -1.251344
