19
Iteration:  4650
 C         2.015785         2.174622        -0.530823
 C         1.783816         0.953299         0.389651
 C         2.131665         0.967475         1.851095
 C         2.359970        -0.537115         1.868289
 O         3.367074        -1.231490         2.541926
 C         0.892030        -1.070847         1.543078
 C         1.031839        -0.467878         0.170845
 C         2.527261        -0.318910         0.225110
 O         3.542017        -0.817087        -0.619488
 H         1.078291         2.547644        -0.919354
 H         2.422050         2.843528         0.233926
 H         2.794700         1.809502        -1.175203
 H         3.100821         1.612129         2.053381
 H         1.424962         1.509248         2.550766
 H         3.957532        -1.583760         1.837632
 H         0.866290        -2.256461         1.419102
 H         0.020703        -0.742761         2.150335
 H         0.243178        -0.561300        -0.627411
 H         3.411229        -1.784899        -0.731717
