19
Iteration:   953charge 0 multiplicity 1
 C         1.886438         1.955954        -0.656436
 C         1.984452         0.932758         0.385481
 C         2.459862         1.020412         1.810661
 C         2.522818        -0.529854         1.844845
 O         3.325680        -1.315318         2.646782
 C         0.975113        -0.931976         1.712570
 C         0.940598        -0.246327         0.381150
 C         2.481358        -0.380371         0.172614
 O         3.233039        -0.888929        -0.876602
 H         1.546180         1.350943        -1.593311
 H         0.956293         2.534479        -0.366156
 H         2.834373         2.503539        -0.643091
 H         3.361287         1.582956         1.996203
 H         1.761438         1.414405         2.494288
 H         4.065272        -0.687319         2.792025
 H         0.771809        -1.967727         1.723593
 H         0.290457        -0.375361         2.388030
 H         0.096339        -0.051281        -0.406470
 H         3.141273        -1.870075        -0.769271
