19
Iteration:  4039charge 0 multiplicity 1
 C         1.791621         2.236529        -0.491934
 C         2.006620         0.924103         0.343874
 C         2.161406         0.962976         1.841926
 C         2.355266        -0.580256         1.801630
 O         3.090082        -1.208290         2.794571
 C         1.021473        -1.259006         1.423880
 C         1.114552        -0.445949         0.137822
 C         2.624265        -0.355679         0.186286
 O         3.605024        -0.750409        -0.681110
 H         2.810413         2.633781        -0.795534
 H         1.296393         2.176912        -1.480016
 H         1.217350         3.015407         0.081078
 H         3.127478         1.444858         2.137490
 H         1.437869         1.311578         2.533227
 H         3.753131        -0.496112         2.924162
 H         1.052073        -2.323189         1.127361
 H         0.180454        -1.143825         2.101875
 H         0.415614        -0.425034        -0.661467
 H         3.459546        -1.631310        -0.946725
