19
Iteration:  2531charge 0 multiplicity 1
 C         1.893753         2.143932        -0.478686
 C         1.932443         0.871837         0.368063
 C         2.378478         0.964020         1.868786
 C         2.471224        -0.527050         1.732571
 O         3.119908        -1.229902         2.751200
 C         0.933574        -1.100391         1.548436
 C         1.017234        -0.430094         0.213569
 C         2.504394        -0.441880         0.094438
 O         3.483260        -0.743599        -0.783611
 H         2.476204         2.916760         0.037226
 H         2.478251         1.916482        -1.398383
 H         0.889206         2.542999        -0.839329
 H         3.169912         1.637298         1.984768
 H         1.648931         1.195946         2.638224
 H         3.663875        -0.595741         3.289547
 H         1.104518        -2.202139         1.627124
 H         0.333189        -0.721393         2.313965
 H         0.384176        -0.144396        -0.583978
 H         3.395339        -1.719857        -0.967840
