19
Iteration:  4386charge 0 multiplicity 1
 C         1.699314         2.170350        -0.450140
 C         1.906770         0.900292         0.380068
 C         2.237624         0.902569         1.847057
 C         2.318267        -0.599045         1.797499
 O         3.057125        -1.245758         2.820896
 C         1.003070        -1.177146         1.407654
 C         1.114646        -0.371760         0.155079
 C         2.668387        -0.390153         0.123375
 O         3.702118        -0.684520        -0.718718
 H         2.684283         2.694044        -0.473037
 H         1.538942         2.011617        -1.594445
 H         0.956128         2.964673        -0.131853
 H         3.278962         1.307058         1.961771
 H         1.528336         1.347816         2.521040
 H         3.866919        -0.734965         3.046650
 H         1.087653        -2.264892         1.177684
 H         0.281072        -0.911938         2.180104
 H         0.425067        -0.182651        -0.636393
 H         3.599713        -1.551496        -1.054814
