19
Iteration:  4595charge 0 multiplicity 1
 C         1.771069         2.048590        -0.660510
 C         1.885295         1.028883         0.469753
 C         2.403503         0.969723         1.874743
 C         2.439126        -0.634979         1.794449
 O         3.089795        -1.370674         2.750267
 C         0.969616        -1.137639         1.527198
 C         1.029928        -0.221186         0.215915
 C         2.581943        -0.378513         0.178222
 O         3.573220        -0.672392        -0.724840
 H         0.747950         2.037374        -1.057672
 H         1.941652         3.085268        -0.264686
 H         2.347096         1.868422        -1.572125
 H         3.549478         1.238558         1.795834
 H         1.822498         1.472073         2.714385
 H         3.830853        -0.810387         3.012258
 H         0.918225        -2.295110         1.300316
 H         0.229615        -0.962169         2.348404
 H         0.426637        -0.373956        -0.752085
 H         3.382820        -1.647645        -0.968094
