19
Iteration:  4172
 C         1.872402         2.242510        -0.371806
 C         1.929393         0.906780         0.373084
 C         2.031874         0.944136         1.865388
 C         2.347087        -0.535775         1.915091
 O         3.242765        -1.240415         2.830162
 C         0.960301        -1.120541         1.508366
 C         1.181566        -0.511954         0.029494
 C         2.640479        -0.413284         0.099475
 O         3.578123        -0.764213        -0.903607
 H         2.422733         3.079447         0.213639
 H         2.447390         2.081184        -1.250058
 H         0.899880         2.704936        -0.640617
 H         2.810891         1.666168         2.154986
 H         1.082118         1.367780         2.321483
 H         3.438676        -0.587423         3.542458
 H         1.070741        -2.151238         1.315218
 H        -0.032385        -0.806919         2.003143
 H         0.435046        -0.703266        -0.834542
 H         3.514458        -1.705968        -0.929997
