19
Iteration:   811charge 0 multiplicity 1
 C         1.736999         2.194815        -0.554182
 C         1.950516         0.972146         0.335704
 C         2.473205         1.043261         1.734178
 C         2.505788        -0.488955         1.828235
 O         3.191757        -1.246847         2.710039
 C         1.019727        -1.053366         1.712779
 C         1.038669        -0.399401         0.309316
 C         2.498134        -0.414347         0.114341
 O         3.361108        -1.045046        -0.773363
 H         1.300025         3.046263        -0.039894
 H         2.582239         2.605122        -1.098797
 H         1.135772         1.873470        -1.326122
 H         3.688869         1.234316         1.803258
 H         2.065160         1.657324         2.541075
 H         3.854298        -0.626163         3.129654
 H         1.089180        -2.090874         1.544788
 H         0.266733        -0.581726         2.415557
 H         0.322629        -0.253546        -0.411574
 H         2.941632        -1.438272        -1.553084
