19
Iteration:  2515charge 0 multiplicity 1
 C         1.898327         2.171973        -0.512371
 C         1.979666         0.940077         0.369070
 C         2.343290         0.919538         1.791160
 C         2.395704        -0.649619         1.856982
 O         3.165130        -1.221490         2.921154
 C         1.025060        -1.107241         1.532699
 C         0.979029        -0.339928         0.180470
 C         2.527691        -0.449074         0.092013
 O         3.464960        -0.745614        -0.876290
 H         2.140426         3.022614         0.118416
 H         2.502243         2.206915        -1.414766
 H         0.886943         2.296530        -0.819252
 H         3.459263         1.158666         1.989577
 H         1.676160         1.517359         2.492633
 H         3.679187        -0.432570         3.218115
 H         0.938315        -2.101273         1.165002
 H         0.177315        -0.830532         2.246460
 H         0.068278        -0.559649        -0.464286
 H         3.377618        -1.617439        -1.214465
