19
Iteration:  1767
 C         1.854470         2.248252        -0.599992
 C         1.995930         1.032463         0.349878
 C         2.551639         0.982315         1.861749
 C         2.493418        -0.553791         1.810621
 O         3.229353        -1.344017         2.584146
 C         1.076268        -0.945980         1.682689
 C         1.042856        -0.224660         0.332776
 C         2.497562        -0.448157         0.215447
 O         3.081706        -1.038563        -0.840208
 H         2.489750         3.167039        -0.372366
 H         1.983608         1.938155        -1.671613
 H         0.839312         2.552632        -0.347671
 H         3.568126         1.291903         1.910082
 H         2.032406         1.379430         2.720018
 H         4.028786        -0.926276         2.872825
 H         1.136359        -2.077657         1.472593
 H         0.304529        -0.740600         2.454932
 H         0.331762        -0.551842        -0.366684
 H         2.925198        -1.983002        -0.666932
