19
Iteration:  1948charge 0 multiplicity 1
 C         1.875744         2.260527        -0.503585
 C         1.994815         0.963320         0.359979
 C         2.526011         1.011082         1.724145
 C         2.433934        -0.615568         1.778046
 O         3.225985        -1.347738         2.733335
 C         0.935138        -1.032965         1.731802
 C         0.947232        -0.250021         0.359571
 C         2.494218        -0.443319         0.140946
 O         3.316225        -0.962354        -0.924636
 H         1.171814         2.199021        -1.390636
 H         1.423453         3.109553         0.129610
 H         2.885623         2.641085        -1.046924
 H         3.555923         1.272071         1.555237
 H         2.061664         1.735773         2.412074
 H         3.966137        -0.689138         2.917887
 H         0.777919        -2.096965         1.655153
 H         0.343916        -0.516474         2.532904
 H         0.151611        -0.438194        -0.359873
 H         3.267632        -1.965522        -0.686262
