19
Iteration:  3669
 C         1.868833         2.172123        -0.656019
 C         1.995428         0.949331         0.370122
 C         2.184059         0.959855         1.880428
 C         2.372002        -0.545456         1.872167
 O         3.295696        -1.161940         2.775025
 C         0.994281        -1.132643         1.520385
 C         1.026783        -0.262578         0.213823
 C         2.562860        -0.432175         0.169764
 O         3.459691        -0.856133        -0.747891
 H         2.789062         2.832934        -0.579625
 H         1.939692         1.760453        -1.661397
 H         0.918504         2.732738        -0.634921
 H         3.095373         1.587933         2.079309
 H         1.452146         1.433924         2.605107
 H         2.995901        -2.040778         3.122814
 H         1.144042        -2.171822         1.308045
 H         0.105310        -1.213036         2.265134
 H         0.411878        -0.312649        -0.697813
 H         3.787063        -1.794097        -0.930442
