19
Iteration:   963charge 0 multiplicity 1
 C         1.803290         2.022706        -0.669195
 C         1.930693         0.983004         0.405181
 C         2.509011         1.085880         1.867059
 C         2.474319        -0.523172         1.829922
 O         3.308308        -1.332531         2.725505
 C         0.987620        -0.940159         1.693242
 C         1.029942        -0.255758         0.342961
 C         2.485263        -0.440120         0.158456
 O         3.212643        -0.956511        -0.922962
 H         1.915208         1.634966        -1.754664
 H         0.933221         2.745309        -0.581300
 H         2.643650         2.743206        -0.698926
 H         3.510303         1.376974         1.930845
 H         1.871089         1.606296         2.567213
 H         4.166469        -0.909663         2.822014
 H         0.863638        -1.998037         1.589532
 H         0.463972        -0.602732         2.585268
 H         0.089670        -0.260918        -0.318557
 H         3.330471        -1.886912        -0.762144
