19
Iteration:   455charge 0 multiplicity 1
 C         1.739164         2.091555        -0.599027
 C         1.888923         0.889421         0.387371
 C         2.156481         0.985341         1.826621
 C         2.398760        -0.549524         1.796161
 O         3.234711        -1.107657         2.800202
 C         1.020884        -1.111328         1.582871
 C         1.091658        -0.438600         0.154693
 C         2.611388        -0.365493         0.217146
 O         3.513973        -0.888639        -0.770840
 H         1.618067         2.961756         0.014187
 H         2.670312         2.203371        -1.094611
 H         0.902797         2.033349        -1.352260
 H         3.161213         1.420304         1.830688
 H         1.498188         1.486243         2.477886
 H         4.110520        -1.103928         2.339103
 H         0.984785        -2.308870         1.587418
 H         0.209846        -0.673419         2.324887
 H         0.341509        -0.530890        -0.711526
 H         4.403849        -0.550364        -0.517357
