19
Iteration:  4098charge 0 multiplicity 1
 C         1.794954         1.951177        -0.666098
 C         1.892092         0.979720         0.360371
 C         2.214142         0.976485         1.848026
 C         2.328465        -0.569838         1.802844
 O         3.200708        -1.383297         2.511702
 C         0.890172        -1.047329         1.569930
 C         1.101782        -0.395130         0.204729
 C         2.571566        -0.341383         0.275109
 O         3.717759        -0.509586        -0.430712
 H         2.396868         2.941080        -0.551885
 H         2.084434         1.477616        -1.664225
 H         0.701058         2.459939        -0.838020
 H         3.138124         1.477697         1.911800
 H         1.572186         1.250720         2.683937
 H         3.232333        -2.279885         2.156162
 H         0.832235        -2.120830         1.452017
 H         0.152384        -0.572340         2.315085
 H         0.736462        -0.532670        -0.837157
 H         3.719415        -1.428860        -0.895271
