19
Iteration:  3655charge 0 multiplicity 1
 C         1.859517         2.067832        -0.612991
 C         1.942204         0.994838         0.387172
 C         2.224706         1.040632         1.882804
 C         2.409730        -0.553273         1.823881
 O         3.175935        -1.140072         2.799284
 C         1.032384        -1.130775         1.479144
 C         1.136900        -0.322408         0.239812
 C         2.668589        -0.347704         0.273550
 O         3.434980        -0.881624        -0.839408
 H         2.676084         2.718547        -0.641635
 H         1.629209         1.626267        -1.563589
 H         1.058230         2.712099        -0.329136
 H         3.192749         1.457046         2.242197
 H         1.241641         1.296357         2.379086
 H         3.031353        -2.071502         2.590741
 H         1.053024        -2.206956         1.113033
 H         0.217523        -0.905061         2.178327
 H         0.493899        -0.487665        -0.563401
 H         3.123758        -1.750819        -0.685637
