19
Iteration:   886
 C         1.910186         2.016510        -0.672372
 C         1.869811         0.883201         0.398019
 C         2.468126         1.071510         1.789267
 C         2.486133        -0.477893         1.821951
 O         3.278593        -1.281000         2.540742
 C         1.006120        -0.991831         1.744747
 C         0.920647        -0.284402         0.349776
 C         2.386572        -0.497377         0.248432
 O         3.323121        -0.849694        -0.746939
 H         0.942546         2.308345        -1.282458
 H         2.306129         2.960173        -0.186919
 H         2.691866         1.856382        -1.466049
 H         3.464383         1.520252         1.660692
 H         1.967222         1.617332         2.572842
 H         4.167716        -0.942438         2.446985
 H         1.071755        -2.076809         1.698823
 H         0.368320        -0.551794         2.488900
 H         0.097455        -0.411963        -0.298646
 H         3.484353        -1.810409        -0.738080
