19
Iteration:  3158
 C         1.994854         2.055870        -0.587924
 C         1.815724         0.964352         0.321704
 C         2.198281         1.027284         1.878297
 C         2.355302        -0.442627         1.809634
 O         3.298304        -1.281794         2.350603
 C         0.968759        -1.042588         1.642322
 C         0.919732        -0.396453         0.254763
 C         2.531073        -0.385673         0.215827
 O         3.631672        -0.793057        -0.479736
 H         3.017950         2.008577        -1.090406
 H         1.220352         1.997722        -1.359552
 H         1.726321         3.047443        -0.232272
 H         3.127447         1.611727         1.819751
 H         1.651634         1.500007         2.647379
 H         2.815003        -1.829163         3.035246
 H         1.079399        -2.186590         1.341986
 H         0.232538        -0.974520         2.380766
 H         0.148700        -0.623491        -0.441361
 H         3.476077        -1.689355        -0.698542
