19
Iteration:  4522
 C         1.932574         2.178909        -0.384423
 C         1.887988         0.890056         0.329106
 C         2.171363         1.014255         1.861912
 C         2.449567        -0.602350         1.761722
 O         3.205286        -1.224267         2.749339
 C         0.942079        -1.074791         1.553349
 C         1.064183        -0.511855         0.102921
 C         2.531144        -0.397967         0.110339
 O         3.552374        -0.746080        -0.717947
 H         1.148970         2.883074         0.137247
 H         2.943224         2.676707        -0.425970
 H         1.518053         2.096208        -1.426275
 H         3.052982         1.574420         2.071802
 H         1.368447         1.298250         2.512323
 H         4.088454        -0.923002         2.489452
 H         0.758252        -2.163366         1.568335
 H         0.206474        -0.599623         2.204410
 H         0.488582        -0.568589        -0.891666
 H         3.331529        -1.687448        -1.005106
