19
Iteration:   361
 C         1.657078         2.036510        -0.704758
 C         1.941082         0.959120         0.373547
 C         2.238877         1.025939         1.881212
 C         2.455073        -0.578556         1.783047
 O         3.329092        -1.139973         2.671458
 C         0.956969        -1.093612         1.596260
 C         1.105770        -0.375118         0.248762
 C         2.578811        -0.356074         0.200682
 O         3.507773        -0.887750        -0.677530
 H         1.302919         3.072528        -0.379114
 H         2.655695         2.230044        -1.193674
 H         1.079090         1.573827        -1.515739
 H         3.146006         1.620170         2.265343
 H         1.387361         1.316781         2.594202
 H         2.865234        -1.930666         2.997878
 H         0.943253        -2.164880         1.528971
 H        -0.006909        -0.707912         2.151895
 H         0.440952        -0.489964        -0.594853
 H         4.373157        -0.475755        -0.547945
