19
Iteration:  2762charge 0 multiplicity 1
 C         1.853225         2.142072        -0.665929
 C         1.918817         0.958992         0.382679
 C         2.345017         0.943235         1.906293
 C         2.325736        -0.585656         1.822353
 O         3.349196        -1.235954         2.591567
 C         0.798051        -1.047256         1.535550
 C         1.029019        -0.402912         0.192738
 C         2.522561        -0.388774         0.250981
 O         3.523543        -0.756651        -0.629459
 H         2.281716         2.969117        -0.172578
 H         2.338421         2.070451        -1.620132
 H         0.831876         2.374790        -0.836340
 H         3.451770         1.101462         1.904784
 H         1.915219         1.682128         2.639450
 H         3.156505        -2.202983         2.680626
 H         0.663104        -2.224890         1.621487
 H         0.059617        -0.555623         2.136331
 H         0.278307        -0.415128        -0.630150
 H         4.323745        -1.330358        -0.458502
