19
Iteration:  3519
 C         1.816309         1.970083        -0.717204
 C         1.939369         1.026856         0.446897
 C         2.214086         1.004560         1.960063
 C         2.417474        -0.550747         1.803292
 O         3.211632        -1.277333         2.677523
 C         1.007971        -1.018486         1.558739
 C         1.066570        -0.268193         0.247851
 C         2.565256        -0.338951         0.207738
 O         3.425364        -0.914615        -0.756602
 H         2.537165         2.803838        -0.674724
 H         2.216706         1.267363        -1.421993
 H         0.883551         2.452777        -1.030472
 H         3.183142         1.482949         2.177534
 H         1.358704         1.352167         2.533044
 H         4.122518        -0.892493         2.642103
 H         1.167790        -2.050598         1.248139
 H         0.224889        -0.785983         2.265939
 H         0.312593        -0.229853        -0.538961
 H         4.239632        -1.214785        -0.267463
