19
Iteration:  2524charge 0 multiplicity 1
 C         1.874015         2.138565        -0.507471
 C         1.977236         0.937151         0.379816
 C         2.389973         0.942570         1.829051
 C         2.451493        -0.622144         1.777942
 O         3.138479        -1.204413         2.836171
 C         1.004428        -1.094295         1.508573
 C         0.975998        -0.404626         0.188489
 C         2.486130        -0.463663         0.113857
 O         3.481039        -0.744360        -0.824710
 H         2.334120         2.997388         0.143042
 H         2.606860         2.074070        -1.347344
 H         0.909108         2.578984        -0.767964
 H         3.351859         1.598347         1.970566
 H         1.534689         1.294658         2.467712
 H         3.676713        -0.583590         3.366896
 H         0.981898        -2.265439         1.528466
 H         0.089789        -0.819257         2.274064
 H         0.060218        -0.248331        -0.455297
 H         3.403115        -1.635543        -1.096968
