19
Iteration:  3848
 C         1.862802         2.198016        -0.500842
 C         1.924005         0.896124         0.379668
 C         2.215608         0.920061         1.848906
 C         2.302786        -0.578276         1.805278
 O         3.250001        -1.073228         2.714976
 C         0.975572        -1.183136         1.442480
 C         1.109941        -0.418310         0.152475
 C         2.610547        -0.381801         0.236184
 O         3.502111        -0.800888        -0.704972
 H         2.889696         2.571103        -0.533817
 H         1.536903         2.157489        -1.570972
 H         1.240582         2.972490        -0.046920
 H         3.086373         1.493308         1.960822
 H         1.368495         1.368408         2.399306
 H         2.796818        -1.441806         3.504115
 H         1.187871        -2.259285         1.154866
 H         0.126688        -1.123229         2.068560
 H         0.688651        -0.383561        -0.844179
 H         3.804436        -1.776537        -0.865964
