19
Iteration:  3630charge 0 multiplicity 1
 C         1.772568         2.131696        -0.574011
 C         1.898899         0.971984         0.416656
 C         2.281505         0.955172         1.926453
 C         2.450519        -0.520554         1.870893
 O         3.111713        -1.161508         2.905760
 C         1.021978        -0.990438         1.468211
 C         1.194279        -0.418329         0.101120
 C         2.616496        -0.425880         0.208092
 O         3.506805        -0.925713        -0.831686
 H         2.667225         2.624444        -0.901419
 H         1.246209         1.661275        -1.432124
 H         1.132759         2.966538        -0.242933
 H         3.203649         1.512267         1.993429
 H         1.491257         1.321948         2.519587
 H         3.696593        -1.776733         2.465004
 H         1.035460        -2.138896         1.526245
 H         0.176278        -0.595371         1.976556
 H         0.541589        -0.435609        -0.836799
 H         2.856027        -1.169379        -1.493467
