19
Iteration:  1366
 C         1.865057         2.213502        -0.418827
 C         1.991483         0.915931         0.334669
 C         2.492594         0.915747         1.756395
 C         2.506892        -0.568477         1.736317
 O         3.235298        -1.134556         2.702266
 C         0.968829        -0.944854         1.779970
 C         0.963556        -0.355878         0.339748
 C         2.464861        -0.447166         0.013920
 O         3.288215        -1.041431        -0.890931
 H         2.629178         2.402070        -1.203045
 H         0.868935         2.087103        -0.877685
 H         1.988010         2.993376         0.343052
 H         3.553759         1.431925         1.715741
 H         1.899466         1.392315         2.513990
 H         4.033031        -0.580929         2.947442
 H         0.703790        -1.989520         1.802400
 H         0.387303        -0.363311         2.353118
 H         0.142662        -0.315261        -0.497627
 H         3.146057        -1.978008        -0.839616
