19
Iteration:  2259charge 0 multiplicity 1
 C         1.922788         2.102745        -0.687426
 C         2.037525         1.006804         0.442433
 C         2.340889         0.958870         1.839636
 C         2.413931        -0.641123         1.823557
 O         3.217032        -1.329212         2.719176
 C         0.973867        -1.023721         1.655232
 C         1.051622        -0.299865         0.281067
 C         2.504029        -0.385996         0.211342
 O         3.273472        -0.768100        -0.853099
 H         2.214900         1.500144        -1.558226
 H         0.899673         2.466061        -0.902259
 H         2.530991         3.015581        -0.438463
 H         3.469109         1.217731         2.000023
 H         1.799051         1.574107         2.632654
 H         4.060928        -0.793363         2.694735
 H         0.753626        -2.146514         1.574369
 H         0.380008        -0.674282         2.523063
 H         0.450170        -0.433765        -0.659354
 H         3.420400        -1.762634        -0.759500
