19
Iteration:  1342charge 0 multiplicity 1
 C         1.848749         2.171437        -0.605292
 C         1.835471         0.929388         0.329549
 C         2.560046         1.002223         1.753502
 C         2.473429        -0.512452         1.883091
 O         3.267119        -1.331746         2.767139
 C         1.017811        -0.941334         1.700253
 C         0.941496        -0.302684         0.291831
 C         2.498880        -0.516870         0.168562
 O         3.246233        -0.872735        -0.852384
 H         2.486264         2.102747        -1.510054
 H         0.823884         2.263536        -0.925634
 H         2.325808         2.913136         0.017013
 H         3.693366         1.194332         1.610387
 H         2.176090         1.754545         2.475019
 H         4.152350        -0.972618         2.858008
 H         1.011124        -2.037914         1.552227
 H         0.328231        -0.510329         2.344126
 H         0.215885        -0.505722        -0.450032
 H         3.222665        -1.872036        -1.108273
