19
Iteration:  2018charge 0 multiplicity 1
 C         1.931135         2.106756        -0.728026
 C         1.896906         0.972389         0.380134
 C         2.387633         1.079054         1.905185
 C         2.476267        -0.574966         1.818148
 O         3.269641        -1.522985         2.442995
 C         0.979644        -0.848109         1.771449
 C         0.937426        -0.254527         0.345086
 C         2.483851        -0.384127         0.304702
 O         3.368323        -0.878704        -0.676430
 H         0.866454         2.458768        -0.911516
 H         2.366311         3.093895        -0.409744
 H         2.268742         1.787584        -1.773566
 H         3.427198         1.606724         1.986325
 H         1.669507         1.477162         2.604053
 H         4.122503        -1.598030         1.922324
 H         0.804369        -1.940151         1.752870
 H         0.431462        -0.353482         2.527719
 H         0.348212        -0.554481        -0.540526
 H         3.142176        -1.696720        -1.222003
