19
Iteration:  2889
 C         1.846357         2.238357        -0.457712
 C         1.947983         0.922614         0.248932
 C         2.305997         0.969700         1.743512
 C         2.409244        -0.568174         1.837465
 O         3.120820        -1.208462         2.895624
 C         1.093280        -1.119796         1.553624
 C         1.100550        -0.387255         0.202580
 C         2.568528        -0.327887         0.133821
 O         3.392919        -0.918374        -0.849771
 H         2.802707         2.707301        -0.804206
 H         1.103679         2.154399        -1.346403
 H         1.553647         3.040081         0.358912
 H         3.332650         1.280790         1.863919
 H         1.550293         1.481260         2.392093
 H         2.694455        -2.054876         3.037079
 H         1.243533        -2.144913         1.365302
 H         0.257543        -0.792775         2.272871
 H         0.479169        -0.747405        -0.657332
 H         4.267219        -0.609450        -0.610905
