19
Iteration:  3142charge 0 multiplicity 1
 C         1.975852         2.148339        -0.612448
 C         1.805457         0.911310         0.394425
 C         2.310697         1.100141         1.828533
 C         2.362552        -0.538736         1.789227
 O         3.350246        -1.290742         2.491489
 C         0.890720        -1.109060         1.593068
 C         0.969675        -0.442169         0.153805
 C         2.437754        -0.455605         0.248011
 O         3.547152        -0.744679        -0.550812
 H         3.024441         2.294569        -0.804828
 H         1.356861         2.163873        -1.536219
 H         1.707651         3.064522        -0.032672
 H         3.375741         1.396022         1.844649
 H         1.580490         1.552428         2.591475
 H         3.156287        -1.224683         3.456973
 H         1.049983        -2.130513         1.614936
 H         0.107737        -0.636354         2.285997
 H         0.406076        -0.559623        -0.822877
 H         3.616882        -1.706353        -0.634285
