19
Iteration:  3641charge 0 multiplicity 1
 C         1.789391         2.030154        -0.565181
 C         1.971543         0.953967         0.417790
 C         2.214776         1.010230         1.964369
 C         2.434168        -0.505749         1.812509
 O         3.102175        -1.153886         2.846808
 C         1.022636        -1.067679         1.507211
 C         1.203400        -0.380864         0.115038
 C         2.708162        -0.277609         0.141085
 O         3.400280        -0.903028        -0.799067
 H         2.784983         2.421617        -0.767361
 H         1.472908         1.680746        -1.580492
 H         1.086849         2.797590        -0.201001
 H         3.141557         1.557117         2.074421
 H         1.539847         1.363843         2.697198
 H         3.499814        -2.006881         2.575027
 H         1.111736        -2.214250         1.523761
 H         0.291004        -0.700599         2.186480
 H         0.773788        -0.455190        -0.944745
 H         2.901927        -1.655267        -1.278152
