19
Iteration:  3229charge 0 multiplicity 1
 C         1.884884         2.107798        -0.458482
 C         1.933858         0.922165         0.370297
 C         2.390574         0.963301         1.777799
 C         2.436808        -0.558419         1.792204
 O         3.068927        -1.143169         2.904149
 C         1.020256        -1.033929         1.538023
 C         0.957199        -0.439052         0.197830
 C         2.561297        -0.443679         0.093281
 O         3.550494        -0.738314        -0.844831
 H         2.804981         2.345974        -0.978922
 H         1.082603         1.861557        -1.182009
 H         1.426658         2.978233         0.049693
 H         3.402207         1.391758         1.848826
 H         1.732777         1.531342         2.518430
 H         3.283781        -2.090118         2.704906
 H         1.036395        -2.107093         1.508366
 H         0.163390        -0.756844         2.303986
 H         0.242999        -0.592498        -0.620264
 H         3.469024        -1.647540        -1.076082
