19
Iteration:  4313charge 0 multiplicity 1
 C         1.947785         2.083199        -0.517426
 C         1.842937         0.936783         0.412785
 C         2.211220         0.924783         1.886985
 C         2.348468        -0.558866         1.752105
 O         3.280107        -1.182240         2.617663
 C         1.019807        -1.220558         1.421158
 C         0.963803        -0.437446         0.071906
 C         2.472822        -0.400300         0.177706
 O         3.592832        -0.575152        -0.537621
 H         2.899909         2.085385        -1.127591
 H         1.219393         2.135689        -1.269466
 H         2.014903         3.057276        -0.110864
 H         3.201358         1.380202         2.089242
 H         1.385412         1.317383         2.546467
 H         2.828263        -1.517411         3.417047
 H         1.289129        -2.356842         1.332428
 H         0.124902        -1.005519         1.994670
 H         0.180028        -0.421957        -0.594060
 H         3.982005        -1.458124        -0.269986
