19
Iteration:  2154charge 0 multiplicity 1
 C         1.749580         2.102549        -0.562191
 C         1.982551         0.969590         0.431015
 C         2.508556         0.950301         1.862978
 C         2.469375        -0.618043         1.763903
 O         3.175878        -1.249640         2.712616
 C         0.917088        -0.952136         1.563350
 C         1.034411        -0.169766         0.330595
 C         2.579593        -0.494157         0.182918
 O         3.379923        -0.902383        -0.843213
 H         2.743397         2.570436        -0.836025
 H         1.277963         1.645145        -1.416940
 H         1.195612         2.928138        -0.228169
 H         3.530852         1.349975         1.889507
 H         1.788961         1.377863         2.670343
 H         4.093038        -1.084606         2.431857
 H         0.660436        -1.962979         1.272129
 H         0.305132        -0.603378         2.417706
 H         0.105752        -0.306573        -0.358102
 H         3.282923        -1.924051        -0.868219
