19
Iteration:  2081charge 0 multiplicity 1
 C         2.001157         2.162976        -0.525400
 C         1.927716         0.930667         0.367113
 C         2.428770         0.945359         1.816145
 C         2.441803        -0.556011         1.824565
 O         3.341245        -1.315346         2.690866
 C         0.978063        -0.915883         1.636521
 C         0.967172        -0.353940         0.331554
 C         2.436513        -0.442992         0.118452
 O         3.276224        -0.874586        -0.900643
 H         1.736186         2.974342         0.117548
 H         2.885614         2.161359        -1.225208
 H         1.047874         2.168047        -1.206850
 H         3.433076         1.227669         2.101671
 H         1.717275         1.448990         2.483457
 H         3.686397        -0.541876         3.244436
 H         0.723898        -1.963915         1.617505
 H         0.179861        -0.414772         2.290095
 H         0.193426        -0.389587        -0.444027
 H         3.116094        -1.862149        -0.704592
