19
Iteration:  2615
 C         1.805252         2.112798        -0.612355
 C         1.862615         0.976351         0.452520
 C         2.317576         1.081342         1.942014
 C         2.368865        -0.627803         1.764716
 O         3.313945        -1.252014         2.567234
 C         0.855029        -1.071248         1.451475
 C         0.966017        -0.352509         0.126014
 C         2.507167        -0.368580         0.242461
 O         3.665822        -0.843779        -0.464640
 H         2.729018         2.237716        -1.098070
 H         1.067673         2.008676        -1.389765
 H         1.591565         3.031967        -0.090648
 H         3.337585         1.523284         1.791336
 H         1.694659         1.645445         2.687367
 H         3.706044        -1.965650         2.076784
 H         0.882555        -2.124121         1.440715
 H         0.092724        -0.889828         2.296699
 H         0.495748        -0.564952        -0.816304
 H         3.313452        -1.352501        -1.174144
