19
Iteration:  1497charge 0 multiplicity 1
 C         1.961239         1.931863        -0.621696
 C         1.851193         0.953096         0.443732
 C         2.544681         1.041308         1.762865
 C         2.486327        -0.468840         1.792504
 O         3.302977        -1.444860         2.558717
 C         1.000015        -0.856196         1.799165
 C         0.893218        -0.283631         0.389428
 C         2.345161        -0.458626         0.189633
 O         3.235777        -0.770649        -0.874005
 H         1.352364         2.782288        -0.311955
 H         2.993653         2.281594        -0.673342
 H         1.726712         1.567006        -1.616570
 H         3.674449         1.146365         1.522932
 H         2.358154         1.578883         2.648645
 H         4.269163        -1.196303         2.423951
 H         0.827689        -1.963508         1.937705
 H         0.431272        -0.277265         2.684714
 H        -0.014640        -0.114034        -0.251636
 H         3.534329        -1.649047        -0.640084
