19
Iteration:  3461charge 0 multiplicity 1
 C         1.885290         2.122944        -0.392380
 C         1.904224         0.819449         0.271411
 C         2.304973         0.960174         1.777904
 C         2.457515        -0.518030         1.801116
 O         3.093625        -1.104814         2.971091
 C         0.999108        -1.071860         1.657251
 C         1.000487        -0.426901         0.200063
 C         2.616853        -0.415634         0.068357
 O         3.483178        -0.906200        -1.093432
 H         3.005763         2.439149        -0.341371
 H         1.501800         2.150801        -1.444273
 H         1.097891         2.750815         0.104067
 H         3.180327         1.616462         1.887214
 H         1.577139         1.334422         2.464091
 H         3.396852        -0.361403         3.511157
 H         0.883732        -2.092309         1.933917
 H         0.201028        -0.701116         2.431918
 H         0.364844        -0.418692        -0.702708
 H         4.307671        -1.174812        -0.750675
