19
Iteration:  3058
 C         1.728508         2.207302        -0.668598
 C         1.875254         0.949802         0.402199
 C         2.392774         1.052287         1.887032
 C         2.483754        -0.535330         1.909281
 O         3.050434        -1.317380         2.866240
 C         1.034177        -1.059224         1.451112
 C         1.223092        -0.420397         0.210243
 C         2.651204        -0.436658         0.229117
 O         3.389428        -0.835123        -0.821530
 H         2.290276         3.143713        -0.270520
 H         2.356724         2.002937        -1.529750
 H         0.738469         2.665794        -0.832456
 H         3.432332         1.440746         1.910533
 H         1.885033         1.500836         2.676678
 H         4.015016        -1.344398         2.791522
 H         0.943773        -2.233002         1.284179
 H         0.165747        -0.924192         2.003361
 H         0.544244        -0.594910        -0.711299
 H         2.693892        -1.295823        -1.317477
