19
Iteration:  1225
 C         1.862471         2.240625        -0.483903
 C         1.892966         0.899856         0.273036
 C         2.359702         1.044418         1.767879
 C         2.451236        -0.614380         1.732636
 O         3.419125        -1.241810         2.649455
 C         0.916410        -0.903734         1.760387
 C         0.980156        -0.323508         0.268886
 C         2.555991        -0.422765         0.158541
 O         3.312729        -1.094507        -0.779490
 H         0.894012         2.269818        -1.001067
 H         1.826958         3.016250         0.263712
 H         2.698676         2.200109        -1.122875
 H         3.326133         1.513028         1.557378
 H         1.685561         1.494148         2.455433
 H         4.137952        -0.534861         2.600356
 H         0.625389        -1.954021         1.591743
 H         0.115350        -0.412538         2.457609
 H         0.111054        -0.223301        -0.279544
 H         3.416454        -2.028287        -0.424295
