19
Iteration:  1147
 C         1.869288         2.096479        -0.683706
 C         1.917332         0.921198         0.368409
 C         2.571132         0.983718         1.781980
 C         2.477957        -0.491469         1.773759
 O         3.222325        -1.290646         2.706047
 C         1.021580        -0.916477         1.792640
 C         0.913299        -0.404925         0.342067
 C         2.437347        -0.500199         0.174672
 O         3.324329        -0.829394        -0.837486
 H         1.792488         1.671861        -1.672555
 H         1.055321         2.667160        -0.253287
 H         2.756238         2.672135        -0.579284
 H         3.588162         1.441691         1.750293
 H         2.023520         1.531173         2.586432
 H         4.190488        -1.195507         2.585407
 H         0.898703        -2.037084         1.943741
 H         0.383128        -0.261396         2.482970
 H         0.030343        -0.257217        -0.252282
 H         2.806707        -1.558793        -1.332929
