19
Iteration:  4407
 C         1.720140         2.212886        -0.472285
 C         1.842867         0.891344         0.361557
 C         2.359174         0.969655         1.830439
 C         2.386196        -0.586389         1.688599
 O         3.066887        -1.278061         2.784135
 C         0.994634        -1.133529         1.473163
 C         0.968546        -0.426036         0.096562
 C         2.581207        -0.394286         0.137596
 O         3.749028        -0.684365        -0.539527
 H         2.329589         3.008274        -0.054122
 H         1.992233         2.044617        -1.600905
 H         0.646922         2.563924        -0.353836
 H         3.440260         1.295512         1.737416
 H         1.727603         1.387086         2.686041
 H         4.026583        -1.342222         2.732157
 H         1.032616        -2.231925         1.344860
 H         0.145187        -0.857573         2.224149
 H         0.464870        -0.649293        -0.866828
 H         3.677418        -1.203034        -1.385711
