19
Iteration:   608
 C         1.773172         2.055623        -0.642039
 C         1.874764         0.976853         0.381526
 C         2.262058         1.039662         1.908773
 C         2.444343        -0.554652         1.863341
 O         3.304273        -1.170555         2.872244
 C         1.063114        -1.113671         1.473182
 C         1.119085        -0.330128         0.216045
 C         2.593517        -0.359260         0.210042
 O         3.276979        -0.977394        -0.883890
 H         1.260332         1.752842        -1.522290
 H         1.252164         2.892355        -0.206247
 H         2.800457         2.387171        -1.016324
 H         3.244189         1.476167         1.965373
 H         1.498112         1.572346         2.675123
 H         3.813763        -0.336240         2.912294
 H         1.096536        -2.225225         1.169887
 H         0.250564        -1.114216         2.190602
 H         0.558754        -0.426520        -0.609830
 H         4.129083        -1.172681        -0.545850
