19
Iteration:  3935charge 0 multiplicity 1
 C         1.839899         2.074626        -0.676459
 C         1.772588         0.941237         0.408273
 C         2.296528         0.982264         1.859288
 C         2.351984        -0.646454         1.770903
 O         3.171452        -1.331663         2.671965
 C         0.949197        -1.001562         1.513437
 C         1.043023        -0.402769         0.145359
 C         2.540016        -0.445820         0.208853
 O         3.665793        -0.573051        -0.492702
 H         2.307685         2.940694        -0.350590
 H         2.135460         1.656614        -1.596319
 H         0.857300         2.382845        -0.743270
 H         3.333008         1.299399         1.743672
 H         1.793400         1.530077         2.763899
 H         4.042975        -1.500044         2.227114
 H         0.929034        -2.109571         1.349410
 H         0.175808        -0.663501         2.215096
 H         0.320701        -0.558570        -0.747492
 H         3.958681        -1.495895        -0.719758
