19
Iteration:  1218
 C         1.799840         2.215492        -0.496621
 C         1.965022         0.923350         0.319571
 C         2.355343         0.972108         1.741685
 C         2.449331        -0.594556         1.820891
 O         3.429366        -1.221212         2.630362
 C         0.897919        -0.869828         1.703807
 C         1.010662        -0.299258         0.261208
 C         2.579266        -0.430182         0.171683
 O         3.275263        -1.114153        -0.812742
 H         0.855758         2.148886        -1.047653
 H         1.865679         2.974803         0.292740
 H         2.615763         2.431769        -1.251178
 H         3.321769         1.477049         1.969423
 H         1.635918         1.544708         2.521466
 H         4.128111        -0.567336         2.774196
 H         0.668919        -1.920031         1.657223
 H         0.250034        -0.390495         2.430841
 H         0.155765        -0.285449        -0.549173
 H         3.313790        -2.048330        -0.401928
