19
Iteration:  2873charge 0 multiplicity 1
 C         1.830019         2.349058        -0.531426
 C         1.951867         0.985967         0.341090
 C         2.359692         0.929651         1.841825
 C         2.466385        -0.591525         1.821934
 O         3.103248        -1.131366         2.956161
 C         1.038056        -1.121926         1.498372
 C         1.036430        -0.406698         0.162531
 C         2.559979        -0.508643         0.120366
 O         3.407941        -0.926778        -0.869287
 H         2.798798         2.818338        -0.756863
 H         1.375567         2.239172        -1.487080
 H         1.251687         3.007832         0.044449
 H         3.324699         1.507684         1.995503
 H         1.664965         1.330468         2.628227
 H         3.380890        -2.030309         2.703702
 H         1.000528        -2.270136         1.253238
 H         0.310003        -1.073255         2.267803
 H         0.273077        -0.524295        -0.635609
 H         4.296819        -0.689064        -0.703454
