19
Iteration:  4007
 C         1.830430         2.184520        -0.455321
 C         1.860904         0.938969         0.409268
 C         2.036084         0.954782         1.897930
 C         2.411729        -0.552815         1.823508
 O         3.198040        -1.140340         2.825243
 C         1.112426        -1.204727         1.345181
 C         1.206869        -0.392051         0.086615
 C         2.716017        -0.333386         0.201647
 O         3.503559        -0.874834        -0.789588
 H         2.996094         2.412995        -0.429134
 H         1.426327         1.923840        -1.479256
 H         1.336260         3.154026         0.057042
 H         2.948170         1.554185         1.993708
 H         1.275236         1.230144         2.575877
 H         2.662170        -0.926661         3.634315
 H         1.171982        -2.214471         0.991539
 H         0.194996        -0.974208         1.992559
 H         0.571983        -0.427761        -0.752927
 H         2.881295        -1.614043        -1.105870
