19
Iteration:  4702
 C         1.754936         2.158928        -0.579363
 C         1.971594         0.992577         0.440763
 C         2.185423         1.004758         2.011912
 C         2.408365        -0.534314         1.824135
 O         3.271591        -1.238574         2.719454
 C         0.889004        -1.093362         1.440927
 C         1.139515        -0.295400         0.118904
 C         2.623781        -0.355426         0.228347
 O         3.540766        -0.911217        -0.704965
 H         0.769389         2.591484        -0.416370
 H         2.609853         2.885953        -0.640911
 H         1.787205         1.508989        -1.497277
 H         3.133755         1.568001         2.262799
 H         1.334198         1.286216         2.600809
 H         3.740308        -1.929898         2.217276
 H         1.016375        -2.179532         1.280948
 H         0.046632        -0.922462         2.122389
 H         0.560026        -0.344225        -0.885512
 H         3.113805        -1.575558        -1.337058
