19
Iteration:  1467charge 0 multiplicity 1
 C         1.920491         2.005354        -0.751973
 C         1.914478         0.974300         0.428385
 C         2.515116         0.942423         1.801298
 C         2.430519        -0.536750         1.792680
 O         3.370657        -1.390054         2.485894
 C         0.911867        -0.799791         1.863641
 C         0.923803        -0.299102         0.400388
 C         2.351691        -0.555190         0.247800
 O         3.324074        -0.722284        -0.756002
 H         1.955354         2.968921        -0.243400
 H         2.853437         1.859167        -1.296514
 H         0.999588         1.815702        -1.337080
 H         3.629889         1.111683         1.817927
 H         2.042480         1.390332         2.673998
 H         4.212173        -1.268792         2.065878
 H         0.667504        -1.803408         2.009780
 H         0.446827        -0.210827         2.548781
 H         0.125678        -0.245000        -0.275463
 H         3.101205        -1.577384        -1.273520
