19
Iteration:  4921charge 0 multiplicity 1
 C         1.678701         2.112629        -0.466804
 C         1.938216         0.989043         0.411052
 C         2.266448         0.972355         1.876700
 C         2.421510        -0.530697         1.835144
 O         3.106513        -1.466090         2.602923
 C         0.925105        -0.895709         1.546317
 C         1.195708        -0.370092         0.174548
 C         2.664485        -0.303052         0.207951
 O         3.545366        -0.893045        -0.856328
 H         0.652130         2.409516        -0.655949
 H         2.373106         2.913725        -0.126989
 H         2.076283         1.641894        -1.386911
 H         3.216630         1.545980         2.217526
 H         1.380258         1.275785         2.464753
 H         3.682872        -1.110692         3.265510
 H         0.771226        -1.931049         1.784842
 H         0.272818        -0.240174         2.151754
 H         0.550964        -0.277326        -0.618983
 H         4.281810        -1.168184        -0.319131
