19
Iteration:  4327
 C         1.961723         2.146375        -0.583364
 C         1.862915         0.950643         0.419992
 C         2.072216         0.959769         1.920889
 C         2.373599        -0.581288         1.820776
 O         3.274817        -1.261545         2.695966
 C         0.974870        -1.205793         1.438184
 C         1.023672        -0.412336         0.170790
 C         2.557835        -0.328294         0.165332
 O         3.609827        -0.645224        -0.747985
 H         2.913889         2.023735        -1.047028
 H         1.155674         2.014142        -1.246667
 H         1.860618         3.082114        -0.037407
 H         2.937405         1.560335         2.210184
 H         1.183863         1.244010         2.639688
 H         2.841775        -1.227692         3.565790
 H         1.068063        -2.227208         1.133938
 H         0.158090        -1.256112         2.280874
 H         0.501870        -0.592425        -0.772232
 H         4.080108        -1.434555        -0.379178
