19
Iteration:  4742charge 0 multiplicity 1
 C         1.689571         2.159262        -0.406678
 C         1.979477         0.879729         0.310688
 C         2.357560         0.977137         1.767677
 C         2.442759        -0.594968         1.756542
 O         3.082530        -1.202450         2.765785
 C         0.958622        -1.032536         1.588240
 C         1.080490        -0.474862         0.142589
 C         2.595274        -0.441682         0.148585
 O         3.664406        -0.696814        -0.716468
 H         1.244004         2.938696         0.267664
 H         2.600181         2.651469        -0.726284
 H         1.034732         2.012022        -1.256472
 H         3.236964         1.550852         1.816227
 H         1.641303         1.538549         2.449066
 H         2.722641        -2.109755         2.779683
 H         0.875419        -2.115921         1.575768
 H         0.217890        -0.580472         2.299172
 H         0.581272        -0.597053        -0.854129
 H         3.432960        -1.542003        -1.075594
