19
Iteration:  1075charge 0 multiplicity 1
 C         1.932723         2.064682        -0.738383
 C         1.882932         0.970875         0.408031
 C         2.435337         1.094580         1.852470
 C         2.422889        -0.448707         1.793039
 O         3.308131        -1.326250         2.452063
 C         1.011165        -1.052418         1.743980
 C         0.923758        -0.191256         0.472788
 C         2.483954        -0.390387         0.200325
 O         3.283978        -1.021053        -0.725887
 H         2.627176         1.547395        -1.440976
 H         0.898043         2.273093        -1.094128
 H         2.387744         2.973977        -0.263788
 H         3.393346         1.468912         1.697262
 H         2.063022         1.608747         2.701592
 H         4.123528        -0.874038         2.824112
 H         1.093238        -2.079135         1.614929
 H         0.499674        -0.813995         2.658619
 H         0.207247        -0.202156        -0.256803
 H         2.883015        -1.899725        -1.096036
