19
Iteration:  3835charge 0 multiplicity 1
 C         1.913315         2.152988        -0.367011
 C         1.896815         0.910881         0.324680
 C         2.144094         0.999214         1.842229
 C         2.405752        -0.503132         1.796166
 O         3.233567        -1.030541         2.749564
 C         0.981456        -1.175270         1.433421
 C         1.077897        -0.431238         0.075842
 C         2.607108        -0.438125         0.162326
 O         3.559483        -0.833819        -0.758730
 H         2.910261         2.520051        -0.549408
 H         1.419767         2.088283        -1.283893
 H         1.312062         2.758302         0.262074
 H         3.087017         1.392518         2.192571
 H         1.360003         1.319475         2.659579
 H         2.710614        -1.634574         3.305183
 H         1.123291        -2.233737         1.338275
 H         0.071333        -1.072569         2.117387
 H         0.439942        -0.718277        -0.693738
 H         3.342420        -1.742343        -0.668082
