19
Iteration:  3126charge 0 multiplicity 1
 C         1.902150         2.107263        -0.519554
 C         1.895226         0.913062         0.319855
 C         2.294424         0.904925         1.802916
 C         2.361178        -0.605382         1.823466
 O         3.327944        -1.245751         2.636460
 C         0.857291        -1.009642         1.533796
 C         1.048674        -0.418154         0.196638
 C         2.531586        -0.363525         0.239288
 O         3.482976        -0.735912        -0.689212
 H         2.965964         2.417743        -0.750913
 H         1.530753         1.814515        -1.508873
 H         1.420315         2.948912        -0.024724
 H         3.315526         1.332900         1.828261
 H         1.703623         1.467815         2.516026
 H         3.504785        -0.702283         3.409803
 H         0.515668        -2.119631         1.390138
 H         0.081521        -0.607449         2.171901
 H         0.304044        -0.470287        -0.538476
 H         3.770350        -1.700771        -0.655552
