19
Iteration:   648
 C         1.691816         2.123688        -0.595326
 C         1.946119         0.883362         0.360947
 C         2.313507         1.029876         1.812754
 C         2.472478        -0.562057         1.753571
 O         3.149238        -1.188423         2.791486
 C         1.054689        -0.991818         1.651291
 C         1.101736        -0.398384         0.278819
 C         2.596131        -0.457235         0.136588
 O         3.393460        -0.964711        -0.835849
 H         2.127625         1.880890        -1.594122
 H         0.583040         2.460044        -0.572674
 H         2.271970         2.902798        -0.071425
 H         3.343491         1.397509         1.931403
 H         1.616349         1.465948         2.487115
 H         4.013827        -0.864441         3.090549
 H         1.108411        -2.037506         1.732514
 H         0.366028        -0.393300         2.292086
 H         0.392822        -0.571321        -0.533904
 H         4.139200        -0.315657        -1.083777
