19
Iteration:  2601charge 0 multiplicity 1
 C         1.794234         2.027914        -0.602250
 C         1.809652         0.996535         0.445368
 C         2.288349         0.976275         1.876992
 C         2.315327        -0.489677         1.772619
 O         3.247252        -1.257235         2.506687
 C         0.887327        -1.101688         1.536565
 C         1.048436        -0.261943         0.239950
 C         2.569819        -0.349391         0.223054
 O         3.721398        -0.847840        -0.488139
 H         2.870427         2.142378        -1.074048
 H         1.083422         1.708759        -1.437425
 H         1.445272         3.024805        -0.259701
 H         3.337716         1.276219         2.102967
 H         1.732618         1.374733         2.720883
 H         3.762044        -1.791317         1.833615
 H         0.889162        -2.148425         1.136465
 H        -0.108125        -0.815378         2.138686
 H         0.218721        -0.024892        -0.459994
 H         3.491316        -1.617599        -1.138297
