19
Iteration:  3837
 C         1.910980         2.147558        -0.385791
 C         1.897301         0.903627         0.321293
 C         2.165281         0.978275         1.854673
 C         2.388382        -0.503350         1.799187
 O         3.235892        -1.028825         2.738729
 C         0.962379        -1.168725         1.438597
 C         1.092002        -0.428860         0.094078
 C         2.605657        -0.431847         0.173132
 O         3.550031        -0.821304        -0.752577
 H         2.905536         2.587749        -0.502982
 H         1.395821         2.087151        -1.359751
 H         1.335886         2.804601         0.271808
 H         3.089975         1.394000         2.152500
 H         1.374085         1.265393         2.566479
 H         2.683003        -1.593532         3.331976
 H         1.225770        -2.253841         1.282543
 H         0.098268        -1.130114         2.074820
 H         0.467720        -0.681712        -0.740157
 H         3.366854        -1.806345        -0.650838
