19
Iteration:  4882charge 0 multiplicity 1
 C         1.752769         2.153127        -0.496707
 C         1.910008         0.966219         0.398636
 C         2.379544         1.001276         1.788339
 C         2.341087        -0.546994         1.808811
 O         3.171758        -1.377358         2.590751
 C         0.933443        -1.081067         1.518369
 C         1.040872        -0.254693         0.195948
 C         2.591921        -0.366464         0.156784
 O         3.602661        -0.847114        -0.537310
 H         0.703776         2.429284        -0.817072
 H         2.001948         3.100690        -0.006660
 H         2.245963         2.065648        -1.470777
 H         3.447556         1.274801         1.889098
 H         1.693899         1.407454         2.567131
 H         4.094809        -1.009052         2.474999
 H         1.005900        -2.180362         1.223358
 H         0.037669        -1.014847         2.153978
 H         0.334329        -0.169924        -0.709875
 H         3.421682        -1.753528        -0.839721
