19
Iteration:  4936
 C         1.756261         2.087737        -0.498527
 C         1.972695         0.914790         0.447043
 C         2.296946         1.018878         1.947034
 C         2.369158        -0.572163         1.814302
 O         3.121238        -1.388920         2.656732
 C         0.928197        -0.974241         1.514632
 C         1.097664        -0.276075         0.159015
 C         2.651653        -0.436875         0.176938
 O         3.520597        -0.856472        -0.821581
 H         0.707495         2.487990        -0.240799
 H         2.482770         2.937898        -0.413074
 H         1.833475         1.878458        -1.583823
 H         3.342388         1.510505         1.970419
 H         1.712557         1.523986         2.722047
 H         3.662474        -0.808879         3.232190
 H         0.841478        -2.065421         1.266201
 H         0.153712        -0.639645         2.169402
 H         0.451043        -0.434510        -0.781596
 H         4.439852        -0.605065        -0.678631
