19
Iteration:  2063
 C         1.971922         2.120554        -0.589353
 C         1.996944         0.941554         0.400078
 C         2.479383         0.972974         1.848098
 C         2.390687        -0.619320         1.790651
 O         3.353377        -1.254106         2.581693
 C         0.832251        -1.021869         1.694101
 C         0.934730        -0.231569         0.251105
 C         2.423865        -0.447003         0.253432
 O         3.278568        -0.854822        -0.797546
 H         1.419743         3.031991        -0.096929
 H         3.057313         2.216881        -0.823742
 H         1.409231         1.833784        -1.535117
 H         3.573704         1.320081         1.704512
 H         1.928478         1.407179         2.681202
 H         4.144045        -0.671262         2.818715
 H         0.701117        -2.123203         1.495896
 H         0.264817        -0.748799         2.530555
 H         0.227363        -0.255995        -0.515742
 H         3.568324        -1.834689        -0.832163
