19
Iteration:  1088
 C         1.987882         1.993083        -0.709680
 C         1.924732         1.065298         0.418922
 C         2.444007         1.036647         1.831447
 C         2.460099        -0.554513         1.756761
 O         3.326033        -1.317874         2.508835
 C         1.034885        -1.012632         1.836608
 C         0.881042        -0.253008         0.386442
 C         2.411737        -0.346426         0.231488
 O         3.255616        -0.926775        -0.758090
 H         2.459269         1.632940        -1.618272
 H         1.017257         2.200676        -1.183236
 H         2.427797         3.023547        -0.603374
 H         3.490119         1.381886         2.002066
 H         1.800676         1.485294         2.453849
 H         4.172294        -0.892687         2.441662
 H         0.915522        -2.098059         1.639543
 H         0.324288        -0.736050         2.615046
 H         0.112082        -0.384067        -0.380753
 H         3.007584        -1.822799        -0.646952
