19
Iteration:  2013
 C         1.889336         2.119615        -0.752632
 C         1.919901         0.984545         0.384832
 C         2.378970         1.053627         1.915376
 C         2.456957        -0.570484         1.855473
 O         3.267068        -1.529919         2.428876
 C         0.970041        -0.817976         1.762386
 C         0.983271        -0.240041         0.374682
 C         2.495691        -0.406164         0.288972
 O         3.374963        -0.882134        -0.694142
 H         0.830390         2.312874        -0.909317
 H         2.416660         2.999664        -0.320586
 H         2.366073         1.909910        -1.745820
 H         3.321114         1.498518         1.860639
 H         1.676269         1.595095         2.608252
 H         4.079026        -1.597055         1.918530
 H         0.862200        -1.902170         1.827937
 H         0.248072        -0.352462         2.527749
 H         0.474537        -0.695579        -0.477715
 H         3.092483        -1.640612        -1.234653
