19
Iteration:  2046charge 0 multiplicity 1
 C         1.976553         1.998042        -0.609377
 C         1.902332         0.967082         0.451609
 C         2.457476         0.969726         1.897133
 C         2.392981        -0.541040         1.788701
 O         3.288391        -1.311979         2.477041
 C         0.944606        -0.957194         1.663740
 C         0.896041        -0.206579         0.396995
 C         2.414881        -0.398628         0.162360
 O         3.372282        -0.880508        -0.736882
 H         1.327251         2.855052        -0.520014
 H         2.858760         2.654780        -0.535601
 H         1.856017         1.555631        -1.614206
 H         3.483212         1.241273         1.872187
 H         1.940023         1.607327         2.681420
 H         4.197424        -0.974470         2.212078
 H         1.009299        -2.034214         1.474904
 H         0.152734        -0.635259         2.449702
 H         0.114252        -0.244562        -0.415671
 H         3.434311        -1.906527        -0.707318
