19
Iteration:   735charge 0 multiplicity 1
 C         1.864776         2.021735        -0.684511
 C         1.851375         0.991286         0.389339
 C         2.256503         1.079384         1.814407
 C         2.462296        -0.581787         1.786936
 O         3.381246        -1.321785         2.534230
 C         0.964838        -0.977548         1.680830
 C         0.976169        -0.317830         0.283997
 C         2.520402        -0.358883         0.254136
 O         3.397344        -0.941808        -0.538604
 H         2.808347         2.562550        -0.717067
 H         1.817315         1.530981        -1.693147
 H         1.050897         2.700290        -0.734712
 H         3.251429         1.633919         1.906204
 H         1.620003         1.498606         2.545682
 H         4.138442        -1.170557         1.962161
 H         1.036009        -2.053986         1.584779
 H         0.236918        -0.700417         2.577037
 H         0.242975        -0.357501        -0.424720
 H         3.353937        -0.693434        -1.470483
