19
Iteration:  3792
 C         1.809389         2.155031        -0.553214
 C         1.990772         0.942077         0.337175
 C         2.207706         0.988344         1.895997
 C         2.335871        -0.599010         1.810381
 O         3.161894        -1.153887         2.794384
 C         0.971934        -1.128794         1.461767
 C         1.079725        -0.392475         0.147991
 C         2.660536        -0.399912         0.257390
 O         3.564324        -0.793266        -0.699613
 H         2.694352         2.760355        -0.756432
 H         1.354909         1.855038        -1.481808
 H         1.160613         2.860144        -0.035608
 H         3.188895         1.377303         1.899220
 H         1.429574         1.538158         2.486449
 H         3.747757        -1.800903         2.338738
 H         0.810736        -2.201445         1.347822
 H         0.216955        -0.787253         2.213183
 H         0.731668        -0.683120        -0.808854
 H         3.150621        -1.522066        -1.243075
