19
Iteration:  2422
 C         1.885680         2.007623        -0.551995
 C         1.855440         0.962928         0.393583
 C         2.485253         0.971202         1.894443
 C         2.363963        -0.534607         1.735386
 O         3.269043        -1.283270         2.521420
 C         0.867775        -0.971804         1.563584
 C         0.956684        -0.336835         0.200502
 C         2.468537        -0.391981         0.221778
 O         3.490163        -0.783120        -0.577701
 H         0.948727         2.593103        -0.537949
 H         2.808378         2.637358        -0.485390
 H         1.882469         1.622182        -1.661742
 H         3.566277         1.243662         1.973133
 H         1.752443         1.208767         2.715250
 H         4.107403        -0.822999         2.578529
 H         1.018478        -2.154459         1.530212
 H         0.062989        -0.681289         2.339502
 H         0.303871        -0.215732        -0.658950
 H         3.568140        -1.825044        -0.624398
