19
Iteration:  4127charge 0 multiplicity 1
 C         1.858745         2.018768        -0.678905
 C         1.811702         1.020463         0.487158
 C         2.196582         0.969282         1.951063
 C         2.316712        -0.564484         1.818657
 O         3.272809        -1.286461         2.604804
 C         1.001030        -1.168334         1.414941
 C         1.010265        -0.335738         0.152461
 C         2.479772        -0.344831         0.183439
 O         3.722512        -0.634928        -0.565618
 H         2.306228         3.020649        -0.458883
 H         2.474418         1.535819        -1.405895
 H         0.886749         2.085428        -1.086415
 H         3.225171         1.391210         2.089358
 H         1.637139         1.334134         2.848688
 H         2.910172        -1.962891         3.200696
 H         1.132871        -2.251280         1.237534
 H         0.244916        -0.896568         2.180670
 H         0.198502        -0.055145        -0.638670
 H         3.739875        -1.569992        -0.783436
