19
Iteration:   116
 C         1.814367         2.071749        -0.629994
 C         1.900471         0.926913         0.464298
 C         2.240829         0.976219         1.950318
 C         2.379968        -0.540812         1.776762
 O         3.320582        -1.137487         2.645512
 C         0.967357        -0.881825         1.627495
 C         1.085181        -0.418185         0.184414
 C         2.588861        -0.431525         0.195063
 O         3.433453        -1.032273        -0.733830
 H         2.374422         1.766928        -1.512217
 H         0.768520         2.323118        -0.819447
 H         2.188396         3.010435        -0.063342
 H         3.031725         1.792137         2.118351
 H         1.440897         1.290089         2.636744
 H         3.926083        -1.501730         2.009254
 H         0.680461        -2.016360         1.560550
 H         0.167837        -0.522217         2.446768
 H         0.512451        -0.421681        -0.671282
 H         3.893892        -0.426778        -1.352205
