19
Iteration:  4426
 C         1.694188         2.138640        -0.524993
 C         1.877059         0.960166         0.363373
 C         2.278108         0.988180         1.831738
 C         2.388583        -0.549690         1.839491
 O         3.156152        -1.373873         2.641773
 C         0.928761        -1.031633         1.485301
 C         1.154398        -0.488113         0.065950
 C         2.565317        -0.374845         0.198773
 O         3.715992        -0.721418        -0.480473
 H         2.030125         2.934748         0.075758
 H         2.278756         2.005328        -1.381120
 H         0.653116         2.339888        -0.725385
 H         3.253327         1.459465         1.906676
 H         1.510123         1.426096         2.596812
 H         3.993006        -1.384434         2.161280
 H         0.841488        -2.079359         1.539693
 H        -0.040489        -0.598198         1.979571
 H         0.235975        -0.382390        -0.633935
 H         3.434338        -0.896332        -1.449683
