19
Iteration:   209
 C         1.807663         2.067439        -0.562714
 C         1.904763         0.821849         0.297542
 C         2.274310         0.957520         1.791463
 C         2.436099        -0.553282         1.827975
 O         3.339542        -1.186860         2.653309
 C         0.880636        -0.941479         1.564741
 C         1.005732        -0.338871         0.258724
 C         2.632261        -0.514389         0.270069
 O         3.472345        -0.789085        -0.768240
 H         0.888431         1.897601        -1.144190
 H         1.699594         2.889466         0.159903
 H         2.631598         2.218291        -1.181248
 H         3.073236         1.646845         1.794572
 H         1.490122         1.419822         2.402339
 H         3.540826        -0.581821         3.418693
 H         0.836803        -1.977636         1.592220
 H         0.228096        -0.583584         2.335903
 H         0.182531        -0.647738        -0.534222
 H         3.919031        -1.635905        -0.631823
