19
Iteration:  3108
 C         1.839940         2.070454        -0.522872
 C         1.945535         0.924717         0.428524
 C         2.313834         0.918027         1.933123
 C         2.389009        -0.598531         1.768380
 O         3.185651        -1.214803         2.777552
 C         0.925365        -0.997463         1.559176
 C         1.030776        -0.273455         0.157013
 C         2.560199        -0.529769         0.136293
 O         3.543251        -0.774584        -0.894165
 H         2.731681         2.652064        -0.611250
 H         1.639793         1.789270        -1.602583
 H         1.011377         2.732038        -0.177136
 H         3.217021         1.457368         2.288869
 H         1.535051         1.329950         2.705892
 H         3.783652        -0.484766         2.979862
 H         0.787321        -2.032599         1.685521
 H         0.173482        -0.627435         2.368433
 H         0.417862        -0.384097        -0.770990
 H         3.757256        -1.754118        -0.768803
