19
Iteration:   390
 C         1.761764         2.049841        -0.607534
 C         1.877133         0.927578         0.316545
 C         2.102300         1.054471         1.921646
 C         2.417203        -0.551444         1.854256
 O         3.391007        -1.166985         2.664229
 C         1.028818        -1.068758         1.528345
 C         1.106081        -0.355525         0.179301
 C         2.617681        -0.383498         0.265497
 O         3.411243        -0.955617        -0.708677
 H         1.619269         3.046970        -0.209245
 H         2.681652         2.080637        -1.210884
 H         0.902031         2.014089        -1.391704
 H         3.085025         1.637339         2.024231
 H         1.285743         1.429482         2.523540
 H         3.240725        -0.986007         3.593472
 H         1.256913        -2.181481         1.285508
 H         0.084153        -0.953664         1.980350
 H         0.569837        -0.745386        -0.780402
 H         4.281141        -0.440644        -0.843699
