19
Iteration:  2141
 C         1.763649         2.154128        -0.591608
 C         2.026200         1.031916         0.422185
 C         2.536765         0.949323         1.862423
 C         2.393238        -0.611523         1.826095
 O         3.249302        -1.306751         2.803285
 C         0.910637        -0.988709         1.619266
 C         1.045265        -0.259708         0.228710
 C         2.480252        -0.419270         0.133435
 O         3.353070        -0.924663        -0.870106
 H         2.660663         2.852568        -0.801013
 H         1.566110         1.718435        -1.592625
 H         0.824964         2.610719        -0.234518
 H         3.635466         1.152096         1.985549
 H         1.992461         1.449644         2.663788
 H         4.102468        -0.806158         2.880818
 H         0.865224        -2.095568         1.514651
 H         0.160193        -0.616147         2.267315
 H         0.383893        -0.053721        -0.659640
 H         3.068037        -1.769839        -1.203904
