19
Iteration:  1968
 C         1.767831         2.129086        -0.511474
 C         1.970638         0.948867         0.352401
 C         2.572547         0.923464         1.814801
 C         2.479610        -0.536038         1.750769
 O         3.216873        -1.327022         2.685845
 C         0.990457        -0.872119         1.664037
 C         0.957374        -0.191756         0.286554
 C         2.425224        -0.452395         0.120378
 O         3.352590        -0.947110        -0.762652
 H         0.914509         2.136602        -1.211073
 H         1.808482         3.074113         0.049715
 H         2.640448         2.244349        -1.231346
 H         3.592276         1.150030         1.818729
 H         2.048560         1.215103         2.777641
 H         4.176916        -1.218877         2.521948
 H         0.804205        -1.946688         1.377011
 H         0.296609        -0.543710         2.508380
 H         0.123111        -0.193861        -0.375921
 H         3.285264        -1.904560        -0.981585
