19
Iteration:  3680charge 0 multiplicity 1
 C         1.927136         2.113888        -0.633561
 C         1.931399         0.955700         0.307086
 C         2.256762         0.998003         1.915162
 C         2.349692        -0.578664         1.805601
 O         3.376543        -1.160987         2.743822
 C         0.930288        -1.123062         1.559603
 C         0.983540        -0.335346         0.134004
 C         2.450975        -0.442798         0.137319
 O         3.530892        -0.782826        -0.697982
 H         2.617636         2.882810        -0.216513
 H         2.145221         1.871656        -1.663622
 H         0.967963         2.650461        -0.551564
 H         3.306984         1.271616         2.164621
 H         1.424652         1.254548         2.628168
 H         2.847859        -1.721707         3.352394
 H         0.972951        -2.158720         1.300474
 H         0.208260        -0.840112         2.419529
 H         0.241213        -0.410996        -0.687444
 H         3.571536        -1.724025        -0.433537
