19
Iteration:   161
 C         1.771126         2.032041        -0.621082
 C         1.846204         0.968186         0.395214
 C         2.352174         1.085105         1.816956
 C         2.453485        -0.497860         1.771374
 O         3.184520        -1.256728         2.652384
 C         1.076207        -1.082453         1.605112
 C         0.994290        -0.290352         0.223392
 C         2.522013        -0.406076         0.203354
 O         3.420394        -0.943168        -0.704627
 H         1.579961         1.477589        -1.540945
 H         1.010799         2.751996        -0.314663
 H         2.806642         2.526101        -0.655705
 H         3.425784         1.493389         1.907750
 H         1.835298         1.562479         2.653993
 H         4.041077        -0.918289         2.920371
 H         1.171649        -2.217694         1.357936
 H         0.249810        -1.003451         2.475022
 H         0.512936        -0.524164        -0.640180
 H         4.259440        -0.639406        -0.309226
