19
Iteration:  1848charge 0 multiplicity 1
 C         1.939946         2.076736        -0.635965
 C         1.823504         0.952365         0.426297
 C         2.500079         1.061393         1.857843
 C         2.503392        -0.500249         1.846411
 O         3.284637        -1.449862         2.523076
 C         0.912865        -0.867922         1.720494
 C         0.921208        -0.255114         0.378290
 C         2.438255        -0.433428         0.258360
 O         3.348807        -0.869913        -0.832594
 H         2.735815         1.726842        -1.342248
 H         1.026423         2.220911        -1.276453
 H         2.138549         3.149571        -0.318017
 H         3.460078         1.388587         1.613233
 H         2.214543         1.418229         2.829461
 H         4.067794        -1.577106         1.983389
 H         0.928896        -1.933559         1.733716
 H         0.217982        -0.509338         2.463879
 H         0.180902        -0.312770        -0.421450
 H         3.186543        -1.843332        -0.777885
