19
Iteration:    68
 C         1.802821         2.188887        -0.659966
 C         1.843120         0.981394         0.331818
 C         2.403493         0.942166         1.815530
 C         2.368422        -0.508422         1.774819
 O         3.330942        -1.145288         2.638215
 C         1.013965        -1.114553         1.622622
 C         1.008174        -0.424686         0.256721
 C         2.507238        -0.380050         0.173541
 O         3.420666        -0.924846        -0.653046
 H         2.502121         1.939251        -1.475054
 H         0.779072         2.384950        -1.010101
 H         2.105223         2.999729        -0.106399
 H         3.427028         1.096450         1.813646
 H         1.995925         1.587206         2.634651
 H         2.861270        -1.907049         3.092158
 H         1.078651        -2.184668         1.607974
 H         0.230782        -0.839854         2.360311
 H         0.064251        -0.450814        -0.457502
 H         4.334018        -0.700569        -0.254998
