19
Iteration:   751charge 0 multiplicity 1
 C         1.899374         2.060969        -0.696902
 C         1.944526         0.954328         0.356664
 C         2.297382         1.064860         1.943807
 C         2.418265        -0.441939         1.830433
 O         3.351348        -1.231239         2.488482
 C         0.964727        -1.002113         1.706453
 C         0.969454        -0.366771         0.310350
 C         2.464105        -0.426217         0.233842
 O         3.422352        -1.000729        -0.650972
 H         2.495100         2.953446        -0.362116
 H         2.222360         1.644035        -1.681907
 H         0.778804         2.485707        -0.603260
 H         3.239886         1.480705         2.141940
 H         1.460981         1.438077         2.634848
 H         4.222433        -1.228544         2.089907
 H         0.729046        -2.113141         1.729623
 H         0.233228        -0.679843         2.375185
 H         0.413909        -0.678773        -0.709207
 H         3.105595        -0.695472        -1.470212
