19
Iteration:  2632
 C         1.848420         2.194484        -0.531348
 C         1.903930         0.998233         0.284046
 C         2.234142         0.942450         1.806922
 C         2.385956        -0.518177         1.835271
 O         3.320303        -1.246487         2.643441
 C         0.935991        -1.051124         1.533612
 C         1.113061        -0.459808         0.122213
 C         2.489991        -0.395724         0.228664
 O         3.533601        -0.827173        -0.493491
 H         2.836646         2.406326        -1.146803
 H         0.945948         2.104188        -1.214382
 H         1.690646         3.091930         0.119913
 H         3.234163         1.289206         2.072207
 H         1.479265         1.250506         2.530653
 H         3.484361        -2.054570         2.163807
 H         0.814179        -2.191244         1.488932
 H         0.070235        -0.621345         2.077556
 H         0.405716        -0.535035        -0.741109
 H         3.219308        -1.064374        -1.336259
