19
Iteration:  2895
 C         1.817529         2.196448        -0.424807
 C         1.944652         0.975219         0.287191
 C         2.278613         0.983026         1.736851
 C         2.428704        -0.540213         1.841758
 O         3.132619        -1.214309         2.854747
 C         1.047865        -1.089873         1.549475
 C         1.106201        -0.419877         0.200168
 C         2.615515        -0.368199         0.128529
 O         3.395360        -0.920935        -0.846571
 H         2.820577         2.407188        -0.843689
 H         1.192658         2.230064        -1.267819
 H         1.582361         2.964935         0.235926
 H         3.307900         1.454256         1.822419
 H         1.644966         1.501563         2.482449
 H         2.550729        -1.959063         3.130722
 H         1.075985        -2.250220         1.452536
 H         0.290582        -0.933489         2.289873
 H         0.635655        -0.474169        -0.792221
 H         4.349002        -0.600102        -0.719335
