19
Iteration:  1155
 C         1.840099         2.151015        -0.704423
 C         1.886373         0.975376         0.367991
 C         2.575685         1.058040         1.776061
 C         2.522783        -0.555545         1.774277
 O         3.219402        -1.353379         2.751631
 C         1.019695        -0.898804         1.743521
 C         0.950516        -0.366279         0.339031
 C         2.427098        -0.501461         0.225451
 O         3.317632        -0.892688        -0.823694
 H         1.439730         1.814206        -1.696403
 H         0.986061         2.779129        -0.288524
 H         2.817522         2.726656        -0.858363
 H         3.649524         1.415066         1.610179
 H         2.047549         1.466742         2.542757
 H         4.143284        -0.976362         2.819877
 H         1.053872        -2.051877         1.678896
 H         0.493777        -0.655556         2.683536
 H         0.047341        -0.370972        -0.406702
 H         2.828565        -1.546121        -1.436635
