19
Iteration:   409charge 0 multiplicity 1
 C         1.857221         2.156595        -0.592975
 C         1.816844         0.940270         0.394241
 C         2.168216         1.030195         1.840723
 C         2.403915        -0.502816         1.774474
 O         3.270276        -1.073500         2.644198
 C         0.980160        -1.224943         1.585514
 C         1.168192        -0.542891         0.178828
 C         2.587309        -0.339761         0.202536
 O         3.428239        -0.952206        -0.711693
 H         1.766124         3.030157        -0.020867
 H         2.705231         2.268954        -1.220747
 H         0.974663         2.146531        -1.222647
 H         3.106946         1.408483         2.094651
 H         1.468180         1.274213         2.630977
 H         3.525520        -0.441529         3.332878
 H         1.062759        -2.369258         1.512105
 H         0.338875        -0.885615         2.575567
 H         0.442335        -0.543097        -0.718388
 H         4.417895        -0.666488        -0.736234
