19
Iteration:  2478charge 0 multiplicity 1
 C         1.878106         2.079330        -0.486370
 C         1.985815         0.898980         0.400070
 C         2.305156         1.039386         1.946405
 C         2.443602        -0.518390         1.815168
 O         3.027935        -1.280179         2.873572
 C         1.096609        -0.991872         1.491995
 C         1.169815        -0.463891         0.195229
 C         2.601831        -0.422802         0.097887
 O         3.348272        -0.748035        -0.953337
 H         1.643893         3.100036        -0.049986
 H         2.705217         2.154747        -1.240021
 H         0.935055         1.805959        -1.066085
 H         3.334774         1.417828         2.211093
 H         1.561061         1.456043         2.663626
 H         3.996600        -1.042602         2.943998
 H         0.921122        -2.162523         1.498929
 H         0.349855        -0.534883         2.260851
 H         0.444967        -0.501034        -0.553816
 H         3.085046        -1.671777        -1.164592
