19
Iteration:    88charge 0 multiplicity 1
 C         1.834283         2.185145        -0.596888
 C         1.898864         0.918125         0.348919
 C         2.369896         1.045555         1.787939
 C         2.399469        -0.534106         1.792509
 O         3.396081        -1.135836         2.681263
 C         0.890874        -1.060481         1.642667
 C         0.937555        -0.407699         0.232654
 C         2.458959        -0.501218         0.188350
 O         3.459896        -0.959376        -0.654864
 H         2.514131         2.142215        -1.463444
 H         0.792046         2.341575        -0.884676
 H         2.180705         3.022522         0.003062
 H         3.350095         1.527875         1.804731
 H         1.667120         1.552114         2.468368
 H         3.347546        -2.056190         2.401602
 H         0.968131        -2.108695         1.421415
 H         0.194985        -0.777200         2.339984
 H         0.441839        -0.635396        -0.746893
 H         4.139846        -0.216459        -0.759905
