19
Iteration:  2388charge 0 multiplicity 1
 C         1.896574         2.195665        -0.646236
 C         1.898114         1.007351         0.333952
 C         2.281180         1.027817         1.833493
 C         2.406460        -0.605948         1.773969
 O         3.337295        -1.450305         2.431159
 C         0.877110        -0.949697         1.714100
 C         0.931616        -0.333149         0.266447
 C         2.485788        -0.329384         0.221419
 O         3.501011        -0.908868        -0.567706
 H         0.943593         2.564753        -0.979899
 H         2.405439         3.064355        -0.152196
 H         2.564561         1.830517        -1.523379
 H         3.132024         1.591974         2.209334
 H         1.442098         1.314881         2.539745
 H         4.204309        -0.990627         2.446954
 H         0.888961        -2.116159         1.615723
 H         0.191255        -0.683458         2.581993
 H         0.184745        -0.357492        -0.595812
 H         4.075551        -1.613599        -0.175162
