19
Iteration:  2860
 C         1.814184         2.179982        -0.451863
 C         1.933353         0.965569         0.418472
 C         2.325602         0.948155         1.866672
 C         2.391179        -0.587506         1.779150
 O         3.150728        -1.099666         2.892524
 C         0.936650        -1.123268         1.509733
 C         1.123481        -0.341788         0.153552
 C         2.584226        -0.364320         0.113301
 O         3.418620        -1.000359        -0.910317
 H         2.818813         2.524746        -0.406775
 H         1.595202         1.921271        -1.465812
 H         1.130885         2.975078        -0.203192
 H         3.370167         1.257251         2.023391
 H         1.652445         1.335600         2.635432
 H         3.713633        -1.876807         2.718309
 H         1.072380        -2.235330         1.391958
 H         0.147283        -0.733097         2.134996
 H         0.577359        -0.201037        -0.740434
 H         4.269493        -0.474285        -0.717150
