19
Iteration:   701
 C         1.768380         2.042193        -0.686811
 C         1.903779         0.910588         0.377518
 C         2.436166         1.018289         1.848530
 C         2.376877        -0.538824         1.735154
 O         3.240045        -1.264698         2.538491
 C         0.965749        -0.941622         1.704656
 C         0.973211        -0.371195         0.300724
 C         2.493483        -0.412971         0.206725
 O         3.514282        -0.891984        -0.559931
 H         2.664534         2.139130        -1.326347
 H         0.922297         1.605731        -1.257229
 H         1.557747         2.959593        -0.250926
 H         3.518180         1.422589         1.738095
 H         1.836570         1.388067         2.644083
 H         4.125544        -0.863133         2.415620
 H         1.078879        -2.059929         1.646723
 H         0.143638        -0.847875         2.601097
 H         0.241266        -0.351103        -0.526881
 H         3.599101        -0.353473        -1.417194
