19
Iteration:  3550charge 0 multiplicity 1
 C         1.765363         2.065528        -0.698991
 C         1.954941         1.021518         0.373278
 C         2.144808         1.125697         1.880339
 C         2.369665        -0.580173         1.786129
 O         3.302959        -1.414975         2.421955
 C         0.938841        -0.961008         1.609931
 C         1.103082        -0.344731         0.259418
 C         2.600123        -0.361277         0.301238
 O         3.479499        -0.974713        -0.482167
 H         2.796530         2.600941        -0.808903
 H         1.879105         1.547215        -1.681239
 H         0.785501         2.648167        -0.748930
 H         3.093587         1.639205         2.114724
 H         1.385802         1.643560         2.432722
 H         4.145714        -0.962837         2.466526
 H         0.825112        -2.024797         1.461588
 H         0.130197        -0.559530         2.343077
 H         0.428945        -0.459512        -0.550061
 H         4.257174        -0.421608        -0.443092
