19
Iteration:  4902
 C         1.710149         2.217453        -0.578390
 C         1.994610         1.009253         0.369834
 C         2.270203         1.031388         2.011839
 C         2.468187        -0.547650         1.764195
 O         3.119648        -1.504155         2.586453
 C         0.972841        -0.935657         1.556660
 C         1.117078        -0.390615         0.140044
 C         2.594793        -0.383984         0.213650
 O         3.553462        -0.862097        -0.695309
 H         0.571083         2.359196        -0.710922
 H         1.942558         3.175976        -0.019661
 H         2.030668         2.171076        -1.641780
 H         3.274010         1.609339         1.927128
 H         1.473474         1.362952         2.635206
 H         3.844371        -0.984589         2.954957
 H         0.729785        -2.041416         1.569761
 H         0.283498        -0.474398         2.206616
 H         0.491711        -0.610020        -0.766385
 H         3.830814        -1.702058        -0.397057
