19
Iteration:  2622charge 0 multiplicity 1
 C         1.813025         2.185447        -0.570903
 C         1.911288         0.928109         0.399702
 C         2.301294         1.040525         1.900873
 C         2.377695        -0.563311         1.778470
 O         3.341497        -1.264919         2.616260
 C         0.912533        -1.082119         1.455430
 C         0.950794        -0.412524         0.088974
 C         2.519238        -0.381339         0.259250
 O         3.561715        -0.819835        -0.449839
 H         2.821829         2.254891        -1.205241
 H         1.005185         2.025534        -1.366707
 H         1.611061         3.178922        -0.099686
 H         3.309159         1.485341         1.994274
 H         1.656214         1.624609         2.536548
 H         3.624726        -2.036933         2.097237
 H         0.746186        -2.207554         1.394619
 H         0.160323        -0.565865         2.184397
 H         0.563765        -0.714393        -0.908832
 H         3.396285        -1.245937        -1.259827
