19
Iteration:  4475
 C         1.853964         2.110588        -0.623322
 C         1.926005         1.067992         0.431831
 C         2.120545         0.968942         1.945922
 C         2.422271        -0.557166         1.755898
 O         3.314551        -1.336868         2.526820
 C         0.952778        -1.164468         1.391852
 C         1.012305        -0.295524         0.179604
 C         2.506022        -0.267166         0.226671
 O         3.569087        -0.844891        -0.374569
 H         1.687538         3.234172        -0.382480
 H         2.813119         1.861125        -1.238107
 H         0.970098         1.761294        -1.208912
 H         3.071973         1.521915         2.320939
 H         1.199255         1.281603         2.466481
 H         4.192943        -1.208836         2.075401
 H         1.244657        -2.308846         1.270705
 H         0.240157        -1.096970         2.202340
 H         0.369606        -0.346336        -0.660629
 H         3.320484        -1.129209        -1.214233
