19
Iteration:  1288
 C         1.840366         1.867576        -0.764016
 C         1.901061         0.977976         0.407668
 C         2.414354         1.002708         1.914655
 C         2.437932        -0.570971         1.856427
 O         3.383297        -1.458236         2.609030
 C         0.892792        -0.801531         1.756029
 C         0.947550        -0.189848         0.348075
 C         2.519594        -0.412680         0.231628
 O         3.353952        -0.752476        -0.817404
 H         1.535345         1.229944        -1.624740
 H         1.179816         2.779208        -0.775875
 H         2.795846         2.264273        -1.136139
 H         3.441371         1.555091         1.969369
 H         1.845449         1.468154         2.687195
 H         4.237830        -1.033856         2.370385
 H         0.810271        -1.889717         1.556000
 H         0.271417        -0.478463         2.528376
 H         0.209591        -0.278271        -0.367601
 H         3.202886        -1.706383        -1.118159
