19
Iteration:  1284charge 0 multiplicity 1
 C         1.845088         1.889677        -0.746687
 C         1.866560         0.974346         0.410686
 C         2.450628         1.043594         1.880623
 C         2.441154        -0.592248         1.855688
 O         3.391842        -1.451593         2.602442
 C         0.892269        -0.846854         1.765556
 C         0.945123        -0.195366         0.346486
 C         2.507258        -0.403393         0.254120
 O         3.367723        -0.769111        -0.818678
 H         1.473980         1.313197        -1.586851
 H         1.355901         2.852984        -0.813423
 H         2.794680         2.266529        -1.165931
 H         3.421122         1.455371         1.983001
 H         1.795366         1.639817         2.655256
 H         4.260746        -1.047113         2.380912
 H         0.700998        -1.919299         1.615651
 H         0.066705        -0.508289         2.458016
 H         0.155236        -0.277007        -0.453127
 H         3.217191        -1.666230        -1.050617
