19
Iteration:  1273
 C         1.897118         1.996250        -0.758927
 C         1.887212         0.983512         0.454845
 C         2.491362         1.128794         1.800002
 C         2.462378        -0.571961         1.849238
 O         3.341163        -1.371137         2.548242
 C         0.879342        -1.016876         1.732940
 C         0.943949        -0.300577         0.386102
 C         2.417492        -0.404110         0.235371
 O         3.371060        -0.795735        -0.756792
 H         1.263272         1.619736        -1.547100
 H         1.439504         2.894806        -0.358523
 H         2.966405         1.974073        -0.973422
 H         3.526824         1.326700         1.726480
 H         1.883519         1.751278         2.588007
 H         4.243551        -1.120560         2.424207
 H         0.617833        -2.077572         1.740408
 H         0.279909        -0.404935         2.435374
 H         0.202527        -0.289238        -0.473601
 H         3.203380        -1.766703        -0.863752
