19
Iteration:  3841
 C         1.898542         2.152145        -0.429222
 C         1.902858         0.882241         0.332145
 C         2.195177         0.936681         1.866051
 C         2.349316        -0.513836         1.799044
 O         3.240450        -1.034030         2.726955
 C         0.953286        -1.165348         1.440490
 C         1.112781        -0.428206         0.128019
 C         2.600688        -0.407775         0.195736
 O         3.531411        -0.813793        -0.737986
 H         2.898207         2.673589        -0.443626
 H         1.397718         2.110328        -1.452826
 H         1.362035         2.911919         0.235609
 H         3.173791         1.474873         2.074890
 H         1.336762         1.231037         2.439096
 H         2.690872        -1.511041         3.357668
 H         1.331074        -2.213510         1.195612
 H         0.059262        -1.173152         2.082543
 H         0.525445        -0.584093        -0.839839
 H         3.502211        -1.797332        -0.709480
