19
Iteration:  1749charge 0 multiplicity 1
 C         1.886250         2.122411        -0.478605
 C         2.065124         0.968587         0.397503
 C         2.447169         1.064071         1.861985
 C         2.524403        -0.553490         1.820685
 O         3.331296        -1.319581         2.673043
 C         0.926633        -0.972919         1.727281
 C         1.010688        -0.197017         0.361425
 C         2.516905        -0.421836         0.101663
 O         3.100299        -1.058768        -1.013735
 H         2.477238         3.030412        -0.174886
 H         2.418481         1.972078        -1.471460
 H         0.879740         2.492334        -0.766026
 H         3.443266         1.521308         2.059403
 H         1.613455         1.643580         2.401610
 H         4.217597        -0.990993         2.762863
 H         0.821254        -2.045639         1.659350
 H         0.351689        -0.649271         2.572942
 H         0.235787        -0.043449        -0.481742
 H         2.876318        -1.986883        -0.867059
