19
Iteration:  3507charge 0 multiplicity 1
 C         1.881031         2.001808        -0.705325
 C         1.861087         0.976558         0.432056
 C         2.291685         1.021156         1.898176
 C         2.425303        -0.600719         1.804707
 O         3.191756        -1.211733         2.789518
 C         0.996026        -1.128164         1.503105
 C         1.101568        -0.315883         0.233168
 C         2.594271        -0.332358         0.212179
 O         3.351951        -0.851134        -0.793593
 H         2.610650         2.803365        -0.390105
 H         2.111583         1.736353        -1.729386
 H         0.840971         2.404389        -0.781833
 H         3.309173         1.444153         1.936442
 H         1.779321         1.527899         2.698468
 H         3.997198        -0.710550         2.913857
 H         0.656476        -2.120012         1.357705
 H         0.290824        -0.743124         2.284394
 H         0.514260        -0.484650        -0.613596
 H         4.140199        -1.305699        -0.392496
