19
Iteration:  4596charge 0 multiplicity 1
 C         1.777125         2.050846        -0.661717
 C         1.883154         1.028649         0.464641
 C         2.392250         0.977761         1.874948
 C         2.435164        -0.639044         1.795100
 O         3.095915        -1.372501         2.747765
 C         0.969000        -1.135327         1.533529
 C         1.023566        -0.228654         0.215392
 C         2.582878        -0.376465         0.181450
 O         3.581240        -0.676005        -0.727915
 H         0.726372         2.034675        -1.056511
 H         1.947462         3.062343        -0.215238
 H         2.360128         1.861520        -1.563456
 H         3.534362         1.234359         1.805473
 H         1.825773         1.486610         2.718992
 H         3.862413        -0.826494         3.004685
 H         0.893234        -2.294554         1.318317
 H         0.232567        -0.926696         2.330697
 H         0.412500        -0.341085        -0.747613
 H         3.384235        -1.626293        -0.992860
