19
Iteration:  3474
 C         1.915483         2.140303        -0.449870
 C         1.930529         0.849634         0.312976
 C         2.326457         1.032127         1.750462
 C         2.376136        -0.522869         1.915613
 O         3.106030        -1.104209         2.891733
 C         1.032580        -1.091681         1.616523
 C         1.063658        -0.522345         0.221067
 C         2.550854        -0.540614         0.020620
 O         3.420527        -0.822485        -1.019151
 H         2.790267         2.803460        -0.161279
 H         1.894928         2.110754        -1.517959
 H         1.135848         2.761787         0.039518
 H         3.383659         1.346896         1.814534
 H         1.652272         1.576990         2.446163
 H         3.353028        -0.444004         3.572399
 H         0.999183        -2.140303         1.511303
 H         0.340661        -0.508658         2.283750
 H         0.201244        -0.637268        -0.342624
 H         4.238870        -1.168264        -0.515586
