19
Iteration:  4839
 C         1.973521         2.138430        -0.555538
 C         1.858610         0.969762         0.380803
 C         2.120849         0.961684         1.888721
 C         2.377038        -0.621611         1.798748
 O         3.327463        -1.258527         2.591281
 C         0.912627        -1.049439         1.544568
 C         1.062249        -0.381006         0.189393
 C         2.543827        -0.369405         0.211443
 O         3.507653        -0.866882        -0.592598
 H         1.018664         2.723806        -0.622270
 H         2.579166         2.931623        -0.113710
 H         2.397996         1.962577        -1.541019
 H         2.927301         1.661404         2.056213
 H         1.349754         1.367652         2.678092
 H         4.045385        -1.734702         2.123438
 H         0.876552        -2.198939         1.419842
 H         0.189632        -0.717738         2.361053
 H         0.387005        -0.440673        -0.726049
 H         3.455225        -0.320171        -1.350066
