19
Iteration:  1681charge 0 multiplicity 1
 C         1.940803         1.971861        -0.670886
 C         1.879244         0.933445         0.414167
 C         2.629850         1.063245         1.830654
 C         2.507604        -0.501093         1.797145
 O         3.248923        -1.454615         2.549566
 C         1.064098        -0.928944         1.858015
 C         0.808745        -0.175690         0.354512
 C         2.368831        -0.434022         0.181781
 O         3.226782        -0.792176        -0.857736
 H         1.723361         3.037724        -0.256311
 H         3.069183         2.077902        -0.997645
 H         1.379227         1.658846        -1.582227
 H         3.658410         1.333099         1.683332
 H         2.167425         1.585524         2.816603
 H         4.170526        -1.200028         2.755039
 H         0.921498        -2.014894         1.639043
 H         0.408139        -0.658522         2.604119
 H        -0.017260        -0.180264        -0.276161
 H         3.275185        -1.818916        -0.890685
