19
Iteration:  4928
 C         1.705129         2.071480        -0.460422
 C         1.968691         0.968614         0.445770
 C         2.280385         0.979076         1.921755
 C         2.406648        -0.527564         1.840724
 O         3.109998        -1.433942         2.619804
 C         0.938863        -0.916196         1.513265
 C         1.126445        -0.315377         0.172665
 C         2.671115        -0.375206         0.212527
 O         3.548846        -0.880580        -0.864676
 H         0.740388         2.570213        -0.573202
 H         2.355295         2.885187        -0.203053
 H         1.915721         1.692248        -1.473008
 H         3.214041         1.414381         1.933034
 H         1.409248         1.521430         2.447705
 H         3.643034        -0.917072         3.246921
 H         0.740213        -1.996289         1.547893
 H         0.145619        -0.454546         2.223752
 H         0.473540        -0.382738        -0.720750
 H         4.425790        -0.913216        -0.519687
