19
Iteration:  4156
 C         1.908925         2.177344        -0.504573
 C         1.928242         0.905562         0.345851
 C         2.079076         0.957404         1.865014
 C         2.356363        -0.600652         1.842331
 O         3.264937        -1.206034         2.702254
 C         0.959168        -1.153007         1.423076
 C         1.135108        -0.429058         0.128943
 C         2.638249        -0.410827         0.296968
 O         3.497444        -0.681021        -0.779032
 H         2.242851         2.933742         0.149365
 H         2.558250         2.193113        -1.414880
 H         0.848539         2.288512        -0.725967
 H         3.014093         1.495859         2.222981
 H         1.211555         1.221834         2.508654
 H         2.995744        -1.045449         3.635228
 H         0.883875        -2.316616         1.386494
 H         0.234369        -0.785720         2.112152
 H         0.746775        -0.558910        -0.846489
 H         3.781370        -1.572127        -0.822930
