19
Iteration:  2995
 C         1.930088         2.122713        -0.555489
 C         1.848798         0.999037         0.365823
 C         2.272888         0.970929         1.922427
 C         2.357970        -0.586712         1.784390
 O         3.381011        -1.296038         2.484156
 C         0.840569        -1.028375         1.574400
 C         0.999839        -0.405899         0.165312
 C         2.459134        -0.364320         0.212683
 O         3.512214        -0.826722        -0.608301
 H         2.874357         2.608117        -0.209151
 H         2.129779         1.812791        -1.571548
 H         1.053699         2.725272        -0.678570
 H         3.296208         1.428031         1.898097
 H         1.692085         1.697183         2.528076
 H         3.839080        -0.751940         3.119390
 H         0.596014        -2.171946         1.489091
 H         0.077499        -0.582965         2.229996
 H         0.449313        -0.787204        -0.694150
 H         3.957782        -1.487080        -0.011946
