19
Iteration:  2183charge 0 multiplicity 1
 C         1.917611         2.219616        -0.621708
 C         1.941427         0.970847         0.379509
 C         2.409040         1.127008         1.842581
 C         2.447801        -0.528408         1.807939
 O         3.253890        -1.446852         2.563620
 C         0.932911        -0.957949         1.730834
 C         0.971799        -0.433276         0.243024
 C         2.423013        -0.438854         0.174081
 O         3.420400        -0.860432        -0.699900
 H         2.879268         2.145082        -1.235657
 H         1.065416         2.088126        -1.326062
 H         1.776602         3.158297         0.012826
 H         3.400963         1.634074         1.966696
 H         1.646207         1.485958         2.441613
 H         4.095662        -1.264790         2.152832
 H         0.853465        -2.084650         1.797792
 H         0.318036        -0.464630         2.459809
 H         0.057829        -0.455717        -0.340803
 H         3.363853        -1.820696        -0.670436
