19
Iteration:    32charge 0 multiplicity 1
 C         1.721548         1.994243        -0.678192
 C         1.993874         0.954444         0.387187
 C         2.192312         1.035983         1.930799
 C         2.412984        -0.461622         1.888892
 O         3.376318        -1.293807         2.609078
 C         1.008300        -0.921698         1.569836
 C         1.091004        -0.352897         0.242349
 C         2.591674        -0.422073         0.248386
 O         3.405045        -0.889784        -0.814506
 H         2.093015         1.856313        -1.699356
 H         0.688815         2.295864        -0.928889
 H         2.139949         3.061422        -0.404031
 H         3.229436         1.447711         2.247934
 H         1.416156         1.448662         2.540164
 H         2.913694        -1.542916         3.461845
 H         0.958227        -2.032919         1.693182
 H         0.210931        -0.642768         2.189530
 H         0.369537        -0.291483        -0.508020
 H         4.118137        -1.562151        -0.629327
