19
Iteration:  4806
 C         1.926198         2.059736        -0.621465
 C         1.920274         0.950278         0.454288
 C         2.104499         0.985166         1.964339
 C         2.369572        -0.487731         1.903603
 O         3.258915        -1.287047         2.613761
 C         0.985339        -1.050435         1.536337
 C         1.128085        -0.388100         0.185348
 C         2.576769        -0.352887         0.211577
 O         3.450506        -0.786540        -0.787616
 H         1.176596         2.871928        -0.443571
 H         2.922181         2.514845        -0.641877
 H         1.647196         1.759443        -1.619811
 H         2.956047         1.663967         2.106417
 H         1.133571         1.129773         2.598226
 H         3.307542        -2.205541         2.365631
 H         1.158192        -2.196217         1.421054
 H         0.166692        -0.938083         2.316240
 H         0.445378        -0.435725        -0.672185
 H         4.377890        -0.557808        -0.501769
