19
Iteration:  1025
 C         1.705189         2.207032        -0.546738
 C         1.970888         0.916261         0.365253
 C         2.542558         0.958230         1.770362
 C         2.439118        -0.567835         1.817653
 O         3.312077        -1.206155         2.623118
 C         0.927410        -0.765274         1.766754
 C         1.010105        -0.277183         0.309554
 C         2.568083        -0.546095         0.138839
 O         3.336450        -1.138857        -0.856389
 H         2.270570         2.105253        -1.441814
 H         0.646142         2.286134        -0.680203
 H         2.028454         2.922642         0.200182
 H         3.600212         1.411515         2.074939
 H         1.933575         1.504464         2.652460
 H         4.068178        -0.699374         2.895810
 H         0.677183        -1.908958         1.716406
 H         0.263225        -0.177785         2.455577
 H         0.116661        -0.354176        -0.366659
 H         2.835101        -1.666472        -1.487998
