19
Iteration:  3068
 C         1.730149         2.178296        -0.626780
 C         1.920424         0.997618         0.361177
 C         2.410642         1.074160         1.841345
 C         2.417994        -0.550012         1.895411
 O         3.038017        -1.358137         2.945737
 C         1.064583        -1.099346         1.520306
 C         1.171651        -0.376842         0.161139
 C         2.691503        -0.386326         0.257773
 O         3.358336        -0.814585        -0.871680
 H         2.395705         2.936295        -0.133199
 H         2.070036         1.992350        -1.657023
 H         0.701435         2.500499        -0.896227
 H         3.440207         1.435698         1.964109
 H         1.761474         1.530748         2.551920
 H         3.982233        -1.491719         2.688080
 H         1.172671        -2.196245         1.245599
 H         0.292642        -0.816796         2.209576
 H         0.836732        -0.757113        -0.881104
 H         2.886336        -1.401581        -1.433429
