19
Iteration:  3723
 C         1.938781         2.051868        -0.646732
 C         1.869432         0.889028         0.360429
 C         2.260147         1.094767         1.886416
 C         2.403032        -0.526087         1.857909
 O         3.261204        -1.411190         2.459734
 C         0.875863        -0.944399         1.603786
 C         0.939632        -0.492593         0.176740
 C         2.526302        -0.434367         0.243466
 O         3.620619        -0.661244        -0.553888
 H         2.354157         2.931880        -0.179762
 H         2.296863         1.839982        -1.613227
 H         0.949147         2.453016        -0.729887
 H         3.278215         1.576147         1.804402
 H         1.335126         1.553534         2.382976
 H         3.717387        -1.040367         3.254839
 H         0.770653        -2.013274         1.711116
 H        -0.006287        -0.481209         2.213283
 H         0.266388        -0.681172        -0.711285
 H         3.947014        -1.623066        -0.657802
