19
Iteration:  3803charge 0 multiplicity 1
 C         1.833190         2.240224        -0.507069
 C         1.895195         0.912641         0.294615
 C         2.162960         0.927365         1.802114
 C         2.406888        -0.545612         1.813766
 O         3.175550        -1.124192         2.824641
 C         0.932824        -1.096717         1.547531
 C         1.127013        -0.415481         0.122720
 C         2.666794        -0.392957         0.227179
 O         3.588424        -0.834105        -0.737535
 H         2.854237         2.576150        -0.674553
 H         1.331669         2.199032        -1.468597
 H         1.221253         2.906520         0.086573
 H         3.029889         1.363867         2.228860
 H         1.441062         1.088974         2.641207
 H         3.525493        -1.986127         2.483733
 H         0.991537        -2.176788         1.340062
 H         0.049920        -0.765566         2.132152
 H         0.570964        -0.786966        -0.676667
 H         3.240983        -1.611059        -1.336618
