19
Iteration:  3018charge 0 multiplicity 1
 C         1.892180         2.114846        -0.538915
 C         1.978917         0.921325         0.371629
 C         2.219241         0.910159         1.858663
 C         2.384792        -0.590699         1.735408
 O         3.290015        -1.234278         2.598875
 C         0.901292        -0.992388         1.579861
 C         0.990526        -0.257434         0.252941
 C         2.537855        -0.552609         0.185622
 O         3.555039        -0.811969        -0.677072
 H         2.455653         2.968288        -0.119903
 H         2.193918         2.040179        -1.589240
 H         0.838174         2.311875        -0.712807
 H         3.068588         1.585325         2.099421
 H         1.362122         1.330547         2.497394
 H         3.862986        -0.570454         3.045746
 H         0.736254        -2.103185         1.455501
 H         0.090773        -0.615720         2.276739
 H         0.164972        -0.066619        -0.368295
 H         3.627201        -1.767368        -0.924644
