19
Iteration:  4654charge 0 multiplicity 1
 C         2.016478         2.172981        -0.539076
 C         1.778159         0.998121         0.417512
 C         2.171733         0.962504         1.849641
 C         2.346085        -0.531290         1.868854
 O         3.381757        -1.217124         2.558997
 C         0.897245        -1.118275         1.523177
 C         0.999870        -0.435101         0.176320
 C         2.476034        -0.324613         0.225927
 O         3.562387        -0.845245        -0.619532
 H         1.043642         2.546741        -0.931984
 H         2.470041         2.946438         0.097207
 H         2.784352         1.826631        -1.243618
 H         3.031623         1.525570         2.038806
 H         1.409604         1.391459         2.548711
 H         3.963317        -1.593776         1.877595
 H         0.986512        -2.151476         1.333520
 H        -0.033256        -0.888650         2.051804
 H         0.299995        -0.474147        -0.580579
 H         3.483904        -1.799192        -0.731160
