19
Iteration:  3023
 C         1.861036         2.094883        -0.529613
 C         2.005253         0.913012         0.366024
 C         2.224039         0.934522         1.881912
 C         2.421591        -0.612698         1.731048
 O         3.238337        -1.222427         2.621042
 C         0.922714        -1.002397         1.583683
 C         1.024479        -0.237506         0.264673
 C         2.502443        -0.512278         0.161818
 O         3.569968        -0.824361        -0.696083
 H         2.408976         2.870105         0.013705
 H         2.271497         1.907633        -1.554403
 H         0.776331         2.301580        -0.717193
 H         3.115279         1.520280         2.136194
 H         1.355006         1.369290         2.365033
 H         3.846984        -0.573804         3.006348
 H         0.769509        -2.039872         1.339493
 H         0.212668        -0.577725         2.297423
 H         0.106424        -0.228990        -0.408212
 H         3.445049        -1.717060        -1.039373
