19
Iteration:  4597
 C         1.782092         2.053760        -0.662075
 C         1.881585         1.026572         0.458100
 C         2.382286         0.985470         1.875959
 C         2.429699        -0.642086         1.795104
 O         3.102475        -1.374243         2.745352
 C         0.968560        -1.133285         1.538969
 C         1.017484        -0.237723         0.214402
 C         2.582918        -0.373622         0.185279
 O         3.588565        -0.680345        -0.731158
 H         0.709542         2.034382        -1.051228
 H         1.954286         3.036237        -0.173258
 H         2.379881         1.854417        -1.553268
 H         3.502720         1.231573         1.820871
 H         1.834707         1.497408         2.717910
 H         3.895038        -0.844874         2.999009
 H         0.872854        -2.274090         1.336844
 H         0.235596        -0.889502         2.311952
 H         0.403978        -0.306116        -0.728944
 H         3.390644        -1.594240        -1.016165
