19
Iteration:  1605charge 0 multiplicity 1
 C         1.862163         2.284222        -0.499440
 C         1.920830         0.986462         0.343732
 C         2.603431         1.003927         1.775065
 C         2.501257        -0.510506         1.739644
 O         3.283284        -1.369832         2.574661
 C         1.010664        -0.908175         1.785077
 C         0.897410        -0.235349         0.359034
 C         2.429914        -0.450326         0.107074
 O         3.245497        -1.156933        -0.743435
 H         0.867009         2.723684        -0.664449
 H         2.261297         3.110967         0.118456
 H         2.220134         2.340020        -1.513922
 H         3.535543         1.377052         1.466073
 H         2.042376         1.681145         2.509691
 H         4.239672        -1.260118         2.298624
 H         1.114321        -2.012198         1.794060
 H         0.521378        -0.642074         2.694877
 H         0.148368        -0.212045        -0.390254
 H         2.647394        -1.719008        -1.181341
