19
Iteration:   171charge 0 multiplicity 1
 C         1.771521         2.073657        -0.615643
 C         1.882249         0.941164         0.391091
 C         2.379719         1.023526         1.879854
 C         2.478921        -0.431204         1.802941
 O         3.195349        -1.256940         2.652805
 C         1.028675        -1.067991         1.568184
 C         0.958906        -0.447844         0.252203
 C         2.512657        -0.370451         0.171779
 O         3.456996        -0.912391        -0.724135
 H         1.374181         1.717645        -1.586521
 H         1.153637         2.964730        -0.484185
 H         2.823566         2.482279        -0.910212
 H         3.410094         1.490668         1.689381
 H         1.773934         1.425596         2.709468
 H         3.858460        -0.739434         3.155270
 H         1.070275        -2.247973         1.510656
 H         0.132561        -0.635397         2.282780
 H         0.222804        -0.436770        -0.446698
 H         4.354967        -0.952541        -0.430981
