19
Iteration:  4307charge 0 multiplicity 1
 C         1.959658         2.060483        -0.559856
 C         1.805538         0.909322         0.427085
 C         2.241345         0.950637         1.868040
 C         2.293016        -0.584382         1.706750
 O         3.289621        -1.159132         2.578196
 C         0.998036        -1.216541         1.410552
 C         1.000740        -0.446171         0.083043
 C         2.482554        -0.391251         0.206851
 O         3.608384        -0.565030        -0.471788
 H         2.908946         2.122364        -1.075983
 H         1.071396         2.201308        -1.278495
 H         1.969246         2.948464         0.191284
 H         3.251413         1.351440         1.940220
 H         1.596381         1.316898         2.708711
 H         2.827246        -1.649247         3.294362
 H         1.115248        -2.257857         1.350497
 H         0.197713        -1.030414         2.220373
 H         0.138253        -0.355750        -0.652327
 H         3.960877        -1.416449        -0.361482
