19
Iteration:  2913
 C         1.819146         2.128858        -0.495435
 C         1.861829         0.932596         0.434351
 C         2.309898         1.040556         1.981989
 C         2.420093        -0.530648         1.810267
 O         3.215977        -1.186785         2.710084
 C         0.931269        -1.022210         1.459225
 C         1.150671        -0.396768         0.125251
 C         2.630278        -0.460806         0.215431
 O         3.454584        -0.969952        -0.865662
 H         2.723036         2.424162        -1.056674
 H         1.009058         1.921584        -1.258638
 H         1.652808         3.093610         0.122780
 H         3.244093         1.543448         2.084078
 H         1.539446         1.345726         2.663756
 H         2.634897        -1.630370         3.366189
 H         0.906371        -2.082722         1.470142
 H         0.081737        -0.509413         1.996787
 H         0.466361        -0.489954        -0.669422
 H         4.310382        -0.398308        -0.853975
