19
Iteration:   604
 C         1.791956         2.058630        -0.665366
 C         1.861719         0.990206         0.402828
 C         2.258119         1.057658         1.906508
 C         2.474888        -0.586557         1.833838
 O         3.291343        -1.150680         2.845257
 C         1.031947        -1.160125         1.497414
 C         1.128499        -0.329452         0.205583
 C         2.594229        -0.337831         0.221876
 O         3.277536        -0.979174        -0.864918
 H         1.163354         1.672446        -1.537060
 H         1.356600         2.945585        -0.025707
 H         2.813305         2.323670        -1.023819
 H         3.240606         1.584395         1.990083
 H         1.515389         1.402244         2.664167
 H         3.827136        -0.338127         3.049230
 H         1.041366        -2.130667         1.136618
 H         0.331206        -1.002745         2.325684
 H         0.436132        -0.469917        -0.726844
 H         4.240570        -1.207163        -0.614817
