19
Iteration:  2358charge 0 multiplicity 1
 C         1.847485         2.128046        -0.537557
 C         1.924524         1.024478         0.428667
 C         2.310507         1.060086         1.882440
 C         2.411449        -0.500457         1.779928
 O         3.251153        -1.391601         2.519396
 C         0.970755        -0.976661         1.656505
 C         0.977673        -0.315621         0.176632
 C         2.587447        -0.370128         0.185117
 O         3.424318        -0.974387        -0.717677
 H         0.905828         2.172624        -1.109970
 H         2.061134         3.055964        -0.012626
 H         2.639000         1.942825        -1.265576
 H         3.326707         1.618902         2.068205
 H         1.522635         1.477128         2.607957
 H         3.891772        -0.813471         2.938197
 H         1.127540        -2.094058         1.498176
 H         0.200480        -0.845816         2.454660
 H         0.311873        -0.316222        -0.683245
 H         3.615570        -1.926505        -0.437341
