19
Iteration:  2614charge 0 multiplicity 1
 C         1.802825         2.098575        -0.612944
 C         1.852644         0.987477         0.453519
 C         2.316834         1.083142         1.943969
 C         2.366484        -0.631114         1.765512
 O         3.307854        -1.249901         2.559282
 C         0.849306        -1.071181         1.454852
 C         0.976801        -0.342604         0.135990
 C         2.506271        -0.367526         0.238488
 O         3.680297        -0.847562        -0.468789
 H         2.776185         2.243917        -1.102474
 H         1.046875         1.991990        -1.405955
 H         1.586982         3.019431        -0.079704
 H         3.342302         1.512610         1.778150
 H         1.708535         1.620018         2.700937
 H         3.722594        -1.960665         2.069182
 H         0.911525        -2.135062         1.429661
 H         0.050468        -0.909820         2.323908
 H         0.463071        -0.524307        -0.803324
 H         3.304734        -1.357999        -1.143773
