19
Iteration:  4381charge 0 multiplicity 1
 C         1.711602         2.175336        -0.483338
 C         1.942696         0.891454         0.392494
 C         2.218238         0.944312         1.901229
 C         2.343984        -0.596307         1.814086
 O         3.078004        -1.259370         2.826529
 C         1.009144        -1.179576         1.391759
 C         1.112525        -0.391461         0.106294
 C         2.667746        -0.375912         0.133789
 O         3.665300        -0.684028        -0.752293
 H         2.692028         2.644826        -0.488795
 H         1.435530         1.927225        -1.462536
 H         1.053501         2.879996         0.000808
 H         3.218493         1.319795         2.094611
 H         1.391475         1.389076         2.583679
 H         3.767754        -0.650645         3.125251
 H         1.016829        -2.257888         1.282561
 H         0.159701        -0.896922         2.125075
 H         0.408912        -0.190382        -0.757967
 H         3.666438        -1.667683        -1.011470
