19
Iteration:  2914charge 0 multiplicity 1
 C         1.818232         2.116741        -0.498484
 C         1.866846         0.952792         0.423443
 C         2.300466         1.030101         1.993206
 C         2.412285        -0.535950         1.815612
 O         3.224879        -1.188417         2.702361
 C         0.934618        -1.005068         1.448776
 C         1.144328        -0.397212         0.136647
 C         2.624219        -0.457539         0.215109
 O         3.459241        -0.971438        -0.861721
 H         2.697411         2.420792        -1.074890
 H         1.031883         1.911317        -1.242467
 H         1.653450         3.043639         0.105426
 H         3.254289         1.515064         2.114288
 H         1.557436         1.339625         2.690139
 H         2.675066        -1.611425         3.375829
 H         0.882809        -2.102679         1.492794
 H         0.088695        -0.506109         1.959898
 H         0.489550        -0.505446        -0.695519
 H         4.286794        -0.383892        -0.838959
