19
Iteration:  4855
 C         1.899782         2.168536        -0.505349
 C         1.878623         0.955776         0.436043
 C         2.322522         0.949388         1.917203
 C         2.353154        -0.554143         1.752619
 O         3.273574        -1.181980         2.603228
 C         0.918360        -1.116516         1.486057
 C         0.896685        -0.339307         0.131956
 C         2.505845        -0.420161         0.174533
 O         3.584777        -0.864413        -0.527195
 H         0.990247         2.601847        -0.914848
 H         2.430558         3.035226        -0.040968
 H         2.389930         1.860556        -1.463161
 H         3.435355         1.037389         2.139290
 H         1.618024         1.222259         2.685077
 H         4.143333        -1.307451         2.100330
 H         0.901013        -2.161310         1.371086
 H         0.094939        -0.872752         2.180704
 H         0.272761        -0.477990        -0.716624
 H         3.460486        -0.899467        -1.507704
