19
Iteration:   702charge 0 multiplicity 1
 C         1.773528         2.034550        -0.690892
 C         1.897720         0.921374         0.383803
 C         2.428670         1.025975         1.857208
 C         2.391979        -0.542322         1.730235
 O         3.239925        -1.268180         2.537897
 C         0.959302        -0.943299         1.703339
 C         0.962050        -0.363531         0.299258
 C         2.494849        -0.416870         0.201453
 O         3.515661        -0.894893        -0.557165
 H         2.675611         2.159980        -1.320750
 H         0.924729         1.584778        -1.301271
 H         1.548742         2.981969        -0.243594
 H         3.496939         1.416082         1.752470
 H         1.865073         1.392808         2.645601
 H         4.128995        -0.849701         2.374022
 H         1.114179        -2.023503         1.671777
 H         0.144866        -0.890545         2.593754
 H         0.259110        -0.369324        -0.478663
 H         3.623293        -0.373718        -1.435865
