19
Iteration:  3055charge 0 multiplicity 1
 C         1.757621         2.207330        -0.657879
 C         1.873252         0.953909         0.398498
 C         2.382805         1.020824         1.904799
 C         2.494351        -0.533911         1.890578
 O         3.060141        -1.302827         2.841679
 C         1.008543        -1.082391         1.470045
 C         1.229101        -0.404317         0.195343
 C         2.615504        -0.413432         0.234116
 O         3.421806        -0.853015        -0.822082
 H         2.185174         3.140718        -0.277008
 H         2.395841         1.891596        -1.509339
 H         0.704745         2.590566        -0.745567
 H         3.398859         1.433200         1.790348
 H         1.790929         1.513692         2.721117
 H         4.021227        -1.243554         2.821201
 H         1.053001        -2.144295         1.386574
 H         0.046788        -0.820576         2.032581
 H         0.433985        -0.495144        -0.632595
 H         2.695622        -1.335089        -1.363999
