19
Iteration:  2947charge 0 multiplicity 1
 C         1.864005         2.102594        -0.676211
 C         1.963703         1.026708         0.360525
 C         2.223805         1.038412         1.848194
 C         2.379576        -0.658224         1.768162
 O         3.341897        -1.347956         2.500076
 C         0.865719        -1.079524         1.534964
 C         1.037135        -0.261481         0.298412
 C         2.552422        -0.393068         0.301933
 O         3.515983        -0.886527        -0.596453
 H         2.817317         2.311605        -1.208165
 H         1.076339         1.833310        -1.419929
 H         1.361156         3.000346        -0.206903
 H         3.104086         1.532259         2.251694
 H         1.416065         1.356038         2.481439
 H         3.150714        -1.122992         3.452817
 H         0.700260        -2.177041         1.357752
 H         0.114236        -0.704414         2.232701
 H         0.347575        -0.217190        -0.568458
 H         4.329019        -0.359080        -0.314458
