19
Iteration:  1828charge 0 multiplicity 1
 C         1.874964         2.090416        -0.605799
 C         2.045114         0.954135         0.352354
 C         2.520799         1.004421         1.793510
 C         2.424800        -0.624979         1.759566
 O         3.298155        -1.430247         2.513238
 C         0.906876        -0.807668         1.851998
 C         0.960055        -0.336097         0.305902
 C         2.376736        -0.422057         0.170292
 O         3.326835        -0.830861        -0.713176
 H         2.718105         2.197571        -1.266420
 H         0.954211         2.173496        -1.163503
 H         1.813466         3.045358        -0.015459
 H         3.581762         1.418932         2.034537
 H         1.762494         1.472608         2.502779
 H         4.082743        -1.525601         1.976276
 H         0.577260        -1.757999         2.154991
 H         0.437745        -0.012391         2.436998
 H         0.168377        -0.366095        -0.403601
 H         3.360302        -1.756528        -0.840261
