19
Iteration:  1238
 C         1.912002         2.205715        -0.491903
 C         1.811380         0.933667         0.333201
 C         2.419268         1.035435         1.707856
 C         2.475622        -0.498582         1.745332
 O         3.339223        -1.227662         2.592652
 C         0.986631        -0.972767         1.717343
 C         0.884600        -0.344441         0.347427
 C         2.389591        -0.511006         0.118759
 O         3.395411        -1.031243        -0.720086
 H         1.171849         2.458517        -1.244811
 H         2.051579         3.044891         0.170775
 H         2.837530         2.262361        -1.064557
 H         3.363965         1.507923         1.696906
 H         1.882917         1.610479         2.543271
 H         4.214921        -0.860411         2.570359
 H         0.852031        -2.036741         1.756109
 H         0.460176        -0.488985         2.599974
 H         0.130463        -0.542537        -0.451313
 H         3.494300        -1.980132        -0.526141
