19
Iteration:  3767charge 0 multiplicity 1
 C         1.766537         1.961905        -0.658113
 C         1.948651         1.013833         0.413923
 C         2.288762         1.025987         1.993141
 C         2.355078        -0.480839         1.793912
 O         3.160318        -1.293057         2.720105
 C         0.954802        -1.065448         1.414968
 C         1.001827        -0.311611         0.194566
 C         2.643409        -0.359153         0.220750
 O         3.620098        -0.771662        -0.638610
 H         2.599454         2.647451        -0.731481
 H         1.781938         1.379082        -1.532908
 H         0.900573         2.583162        -0.565021
 H         3.374422         1.395700         2.063524
 H         1.519581         1.148254         2.888443
 H         3.998326        -1.395429         2.198646
 H         0.929650        -2.107836         1.219130
 H        -0.058820        -0.984552         1.996379
 H         0.239656        -0.243352        -0.665936
 H         3.495283        -1.774649        -0.886983
