19
Iteration:  2497
 C         1.836367         2.142354        -0.540264
 C         1.960216         0.951399         0.382419
 C         2.395500         0.900190         1.869469
 C         2.399986        -0.615944         1.901917
 O         3.095092        -1.196086         2.923879
 C         0.916835        -1.126029         1.548379
 C         1.124378        -0.353271         0.186202
 C         2.647520        -0.394614         0.160066
 O         3.400242        -0.757471        -1.009342
 H         1.938116         3.043107         0.048901
 H         2.721329         2.127382        -1.201066
 H         0.866930         2.351484        -1.109151
 H         3.319294         1.373301         1.807009
 H         1.727190         1.321659         2.615931
 H         3.966528        -0.768171         3.106258
 H         0.953053        -2.239642         1.517450
 H         0.106751        -0.931646         2.226586
 H         0.652441        -0.391085        -0.779932
 H         3.219830        -1.659571        -1.207161
