19
Iteration:  3747charge 0 multiplicity 1
 C         1.815822         2.005286        -0.771724
 C         1.867262         1.030143         0.411942
 C         2.243771         0.984409         1.899050
 C         2.378684        -0.608929         1.779699
 O         3.171984        -1.419181         2.578606
 C         0.961468        -1.034839         1.660919
 C         1.068779        -0.271908         0.174850
 C         2.549600        -0.331169         0.223519
 O         3.629318        -0.712088        -0.542961
 H         2.453546         2.871426        -0.562303
 H         2.076638         1.513784        -1.687156
 H         0.855916         2.502259        -0.875674
 H         3.249404         1.296067         2.115298
 H         1.398292         1.360461         2.515758
 H         4.061531        -1.011372         2.664281
 H         0.827372        -2.078348         1.448047
 H         0.199672        -0.714066         2.436421
 H         0.432031        -0.218040        -0.750702
 H         3.772106        -1.678775        -0.653258
