19
Iteration:  3168
 C         1.916152         2.029034        -0.674552
 C         1.824084         0.924558         0.420955
 C         2.183512         1.069550         1.849585
 C         2.353708        -0.518200         1.744103
 O         3.323734        -1.298618         2.369369
 C         0.974204        -1.033212         1.607581
 C         0.963596        -0.319503         0.284937
 C         2.532582        -0.306594         0.260428
 O         3.634559        -0.803925        -0.468176
 H         2.985163         1.956535        -1.074640
 H         1.247483         1.936746        -1.522394
 H         1.958892         3.002852        -0.179166
 H         3.178340         1.420243         2.157179
 H         1.334585         1.318465         2.406988
 H         2.841269        -2.068020         2.766129
 H         1.105440        -2.190562         1.532081
 H         0.285090        -0.723641         2.302097
 H         0.124946        -0.419075        -0.350328
 H         3.412368        -1.711736        -0.620781
