19
Iteration:   381
 C         1.752392         2.023298        -0.681463
 C         1.899248         0.919171         0.388211
 C         2.076844         1.064706         1.873764
 C         2.419716        -0.506937         1.903021
 O         3.464613        -1.217779         2.715072
 C         1.004724        -1.040169         1.482774
 C         1.089910        -0.345070         0.114270
 C         2.592085        -0.374968         0.228535
 O         3.425087        -0.941026        -0.688308
 H         1.553172         2.934797        -0.028729
 H         2.616702         2.296605        -1.359174
 H         0.837096         1.691440        -1.302787
 H         3.099738         1.579247         2.188575
 H         1.337158         1.465641         2.615599
 H         3.074274        -1.331493         3.586179
 H         1.035250        -2.116177         1.213695
 H         0.318176        -0.954588         2.265405
 H         0.356120        -0.466294        -0.740433
 H         4.297007        -0.425924        -0.822731
