19
Iteration:  2863charge 0 multiplicity 1
 C         1.790990         2.229738        -0.478570
 C         1.950160         0.982285         0.394929
 C         2.327628         0.951582         1.858162
 C         2.422150        -0.592257         1.790131
 O         3.136525        -1.108382         2.914585
 C         0.951429        -1.126906         1.506198
 C         1.101077        -0.374074         0.162379
 C         2.550183        -0.410166         0.127472
 O         3.429684        -0.986197        -0.912888
 H         2.863070         2.590648        -0.447360
 H         1.595892         1.995501        -1.502047
 H         1.250021         3.079562        -0.136358
 H         3.402770         1.316850         1.973824
 H         1.658530         1.261127         2.710766
 H         3.659780        -1.894007         2.756422
 H         1.124115        -2.261725         1.333648
 H         0.203406        -0.797736         2.197391
 H         0.575720        -0.134136        -0.773046
 H         4.243609        -0.551075        -0.714490
