19
Iteration:  1947charge 0 multiplicity 1
 C         1.877824         2.257691        -0.497307
 C         2.002683         0.961945         0.355565
 C         2.525180         1.026949         1.727442
 C         2.433388        -0.606217         1.776369
 O         3.228179        -1.347981         2.733400
 C         0.937962        -1.036098         1.735553
 C         0.949688        -0.257890         0.353863
 C         2.483109        -0.441600         0.138077
 O         3.310782        -0.965009        -0.928732
 H         1.208154         2.177235        -1.407966
 H         1.444038         3.114052         0.122992
 H         2.877388         2.658586        -1.004378
 H         3.542565         1.241563         1.559448
 H         2.047530         1.736023         2.459672
 H         3.947776        -0.689523         2.950682
 H         0.739751        -2.126020         1.645121
 H         0.346596        -0.510856         2.539641
 H         0.180660        -0.473260        -0.345910
 H         3.290119        -1.970279        -0.720147
