19
Iteration:   201
 C         1.787261         2.073240        -0.553599
 C         1.935781         0.872416         0.300200
 C         2.261280         0.937330         1.773448
 C         2.444540        -0.542169         1.827686
 O         3.324631        -1.213027         2.672306
 C         0.894377        -0.984630         1.658786
 C         1.007727        -0.342636         0.227126
 C         2.569403        -0.493752         0.241680
 O         3.469517        -0.796608        -0.784106
 H         1.007299         1.957357        -1.312698
 H         1.555050         3.014843        -0.034233
 H         2.630271         2.265925        -1.221356
 H         3.209933         1.472005         1.777642
 H         1.538428         1.479793         2.456226
 H         3.593155        -0.617892         3.417594
 H         0.585043        -2.027213         1.681605
 H         0.329852        -0.433381         2.355886
 H         0.621662        -0.748665        -0.747145
 H         4.190834        -1.433041        -0.539056
