19
Iteration:  2070charge 0 multiplicity 1
 C         1.959713         2.119301        -0.563906
 C         2.006324         0.961567         0.390672
 C         2.453120         0.945898         1.817434
 C         2.424915        -0.626679         1.799242
 O         3.374596        -1.273937         2.634328
 C         0.837493        -1.007506         1.677587
 C         0.966397        -0.281731         0.277815
 C         2.417233        -0.451097         0.175028
 O         3.244996        -0.847659        -0.798445
 H         1.768222         3.073000        -0.088511
 H         2.999508         2.408228        -0.930952
 H         1.291638         1.967919        -1.488339
 H         3.484416         1.332208         1.819150
 H         1.888357         1.515004         2.546791
 H         3.990956        -0.591663         2.984913
 H         0.773788        -2.083892         1.582860
 H         0.126170        -0.583278         2.454975
 H         0.265188        -0.218719        -0.577103
 H         3.479979        -1.779597        -0.813167
