19
Iteration:   301charge 0 multiplicity 1
 C         1.729123         2.131854        -0.654393
 C         1.890934         0.882643         0.349219
 C         2.256056         0.958786         1.813103
 C         2.391437        -0.537517         1.857798
 O         3.252202        -1.153792         2.695713
 C         0.985716        -1.032575         1.666520
 C         1.016707        -0.377969         0.181608
 C         2.615078        -0.460744         0.200369
 O         3.513538        -0.927174        -0.668356
 H         0.679764         2.407278        -0.800836
 H         2.286461         2.948866        -0.178005
 H         2.145178         1.964850        -1.716243
 H         3.275492         1.412890         1.862351
 H         1.567506         1.307301         2.596361
 H         4.124571        -1.162573         2.301286
 H         0.845399        -2.126066         1.868577
 H         0.333786        -0.540801         2.235306
 H         0.521050        -0.493708        -0.735178
 H         4.115786        -0.188448        -1.079962
