19
Iteration:  1524
 C         1.902083         2.086013        -0.676029
 C         2.027246         0.993306         0.354825
 C         2.556258         0.997977         1.851434
 C         2.523234        -0.513787         1.754028
 O         3.302157        -1.408113         2.611462
 C         0.968272        -0.947946         1.806245
 C         0.898579        -0.214192         0.466838
 C         2.411490        -0.387890         0.165076
 O         3.161997        -0.937836        -0.921158
 H         0.856946         2.519821        -0.606069
 H         2.625124         2.931107        -0.515552
 H         2.127240         1.927147        -1.786206
 H         3.597789         1.393137         1.920198
 H         2.080043         1.349194         2.834422
 H         4.055163        -0.861691         2.994399
 H         0.785347        -1.988901         1.640119
 H         0.553291        -0.602088         2.668440
 H         0.158687        -0.406610        -0.328002
 H         3.050953        -1.875733        -0.790356
