19
Iteration:  4964charge 0 multiplicity 1
 C         1.912701         2.244678        -0.523902
 C         1.971614         0.994145         0.447018
 C         2.321917         0.870124         1.853167
 C         2.354818        -0.679957         1.777233
 O         3.133421        -1.242714         2.792863
 C         0.986439        -1.190259         1.467655
 C         0.974362        -0.373939         0.166080
 C         2.513953        -0.328633         0.122554
 O         3.493259        -0.805144        -0.686538
 H         1.372954         3.083937        -0.184268
 H         2.939874         2.462018        -0.800844
 H         1.493667         1.840358        -1.472359
 H         3.352781         1.174874         1.923226
 H         1.842278         1.530010         2.644108
 H         3.934746        -0.744284         2.933871
 H         1.068947        -2.221168         1.126732
 H         0.143847        -1.006058         2.219429
 H         0.340204        -0.522959        -0.675926
 H         3.816646        -0.255209        -1.369529
