19
Iteration:  2518
 C         1.893749         2.157559        -0.513465
 C         1.986041         0.957144         0.385105
 C         2.365431         0.932586         1.796289
 C         2.415270        -0.656165         1.835404
 O         3.158821        -1.212381         2.899172
 C         1.024871        -1.098754         1.530047
 C         0.960206        -0.360934         0.168731
 C         2.510829        -0.457433         0.106571
 O         3.471516        -0.744553        -0.860084
 H         2.170892         2.959033         0.111395
 H         2.544852         2.189141        -1.379044
 H         0.857093         2.436291        -0.786437
 H         3.372745         1.255155         1.976610
 H         1.616470         1.444208         2.417843
 H         3.663727        -0.493401         3.272987
 H         0.923245        -2.133878         1.290190
 H         0.222785        -0.876925         2.122478
 H         0.034103        -0.488904        -0.388842
 H         3.404980        -1.651841        -1.212076
