19
Iteration:  1106charge 0 multiplicity 1
 C         1.956836         1.997098        -0.750978
 C         1.940306         0.912559         0.376391
 C         2.434933         1.010721         1.904696
 C         2.507551        -0.538067         1.863856
 O         3.431082        -1.312248         2.591326
 C         0.904211        -0.875844         1.720031
 C         0.900811        -0.278975         0.353456
 C         2.391140        -0.471686         0.209253
 O         3.197985        -0.827474        -0.801760
 H         2.575877         1.632432        -1.651900
 H         0.933950         2.358816        -1.013097
 H         2.598726         2.811087        -0.379646
 H         3.407636         1.420865         1.884230
 H         1.709123         1.343589         2.836457
 H         4.286176        -1.208799         2.196972
 H         0.740320        -1.914809         1.808270
 H         0.308160        -0.354167         2.480966
 H         0.132486        -0.238491        -0.321408
 H         3.575777        -1.668172        -0.840385
