19
Iteration:  3208charge 0 multiplicity 1
 C         1.790304         1.995763        -0.667911
 C         1.945640         0.960610         0.391208
 C         2.350081         0.944103         1.930786
 C         2.360269        -0.610413         1.843336
 O         3.241455        -1.187282         2.699774
 C         0.861446        -1.008768         1.518080
 C         1.082957        -0.337482         0.199679
 C         2.603425        -0.399837         0.261036
 O         3.503612        -0.736852        -0.742109
 H         2.754858         2.162153        -1.125545
 H         0.930780         1.994302        -1.335130
 H         1.634584         2.978626        -0.174358
 H         3.416713         1.233583         2.145900
 H         1.619493         1.485139         2.650481
 H         3.402672        -2.098194         2.418603
 H         0.788427        -2.059246         1.479512
 H        -0.017983        -0.512054         2.154405
 H         0.576811        -0.207211        -0.762464
 H         3.817091        -1.692676        -0.730157
