19
Iteration:  4495charge 0 multiplicity 1
 C         1.925911         2.187298        -0.565593
 C         1.787072         0.933466         0.376696
 C         2.202695         1.015411         1.943351
 C         2.321470        -0.603057         1.797357
 O         3.243948        -1.187923         2.568320
 C         0.969201        -1.231201         1.459111
 C         1.035202        -0.348728         0.180326
 C         2.526018        -0.369079         0.238290
 O         3.606103        -0.832647        -0.516879
 H         1.647195         3.033539         0.004090
 H         2.955071         2.354427        -0.950207
 H         1.274865         2.262448        -1.438190
 H         3.332787         1.290344         2.038959
 H         1.694266         1.554677         2.824428
 H         3.971632        -0.958082         1.968448
 H         1.245423        -2.270552         1.113632
 H         0.142534        -1.297187         2.218866
 H         0.494567        -0.343211        -0.697442
 H         3.198277        -1.289444        -1.293722
