19
Iteration:  2645charge 0 multiplicity 1
 C         1.847836         2.220258        -0.518544
 C         1.890713         0.905027         0.382239
 C         2.165417         0.973790         1.847735
 C         2.365427        -0.597681         1.751175
 O         3.238236        -1.162226         2.649695
 C         0.913652        -1.038825         1.587417
 C         1.063414        -0.440653         0.193351
 C         2.655697        -0.372273         0.200713
 O         3.622574        -0.914014        -0.652546
 H         2.860263         2.416228        -1.084148
 H         1.013351         2.420271        -1.267191
 H         1.757170         3.032214         0.242281
 H         3.047706         1.628043         1.973546
 H         1.397956         1.370262         2.498657
 H         3.413991        -2.103930         2.385138
 H         0.982844        -2.144419         1.560821
 H         0.120445        -0.725871         2.401237
 H         0.387600        -0.446669        -0.655214
 H         3.200741        -1.006405        -1.577808
