19
Iteration:  2443charge 0 multiplicity 1
 C         1.837816         2.145262        -0.641473
 C         1.964155         0.987213         0.349049
 C         2.312973         1.012640         1.879072
 C         2.415241        -0.665634         1.846500
 O         3.198494        -1.367613         2.688080
 C         0.952368        -1.022096         1.616203
 C         1.008793        -0.326107         0.277210
 C         2.538693        -0.401525         0.173296
 O         3.498216        -0.773089        -0.734268
 H         1.215649         2.996209        -0.378939
 H         2.884600         2.480099        -0.884855
 H         1.454411         1.744950        -1.663857
 H         3.291410         1.355800         1.739069
 H         1.723252         1.616719         2.615186
 H         4.054155        -0.902700         2.893793
 H         0.665794        -2.118023         1.415613
 H         0.290648        -0.586431         2.406918
 H         0.210372        -0.474774        -0.447469
 H         3.472734        -1.603477        -1.194809
