19
Iteration:  1014charge 0 multiplicity 1
 C         1.726034         2.148304        -0.424512
 C         1.999975         0.911278         0.335161
 C         2.551984         1.015184         1.756760
 C         2.487607        -0.460018         1.834658
 O         3.274492        -1.240175         2.723188
 C         0.960346        -0.830070         1.693222
 C         0.988555        -0.236287         0.314693
 C         2.464574        -0.585339         0.102958
 O         3.348291        -1.125852        -0.897653
 H         2.141876         2.202471        -1.407780
 H         0.673528         2.216594        -0.644681
 H         1.990025         3.135642        -0.066408
 H         3.598440         1.479258         1.625935
 H         1.796605         1.513028         2.492398
 H         4.171313        -0.796665         2.742066
 H         0.827664        -1.963735         1.807841
 H         0.364228        -0.344675         2.501480
 H         0.250922        -0.252028        -0.494135
 H         2.845985        -1.884871        -1.367364
