19
Iteration:  2080charge 0 multiplicity 1
 C         2.000089         2.159430        -0.529336
 C         1.932263         0.937995         0.368718
 C         2.433037         0.939733         1.811888
 C         2.442496        -0.558161         1.823831
 O         3.348074        -1.315324         2.687709
 C         0.967226        -0.922408         1.633333
 C         0.967251        -0.352224         0.338191
 C         2.435788        -0.450380         0.116046
 O         3.271192        -0.868759        -0.888720
 H         1.730373         2.964739         0.088455
 H         2.871268         2.189159        -1.207704
 H         1.097173         2.158270        -1.214010
 H         3.419763         1.214757         2.102012
 H         1.714724         1.492538         2.490632
 H         3.695365        -0.523322         3.204617
 H         0.722859        -1.971620         1.616610
 H         0.146194        -0.420194         2.288307
 H         0.201941        -0.365423        -0.478646
 H         3.127764        -1.830688        -0.680535
