19
Iteration:  2815charge 0 multiplicity 1
 C         1.883764         2.179056        -0.665758
 C         1.923183         1.043788         0.399205
 C         2.211720         1.009065         1.886247
 C         2.379450        -0.601440         1.836236
 O         3.356293        -1.311411         2.600345
 C         0.882024        -1.074029         1.626716
 C         1.042770        -0.326601         0.228886
 C         2.534021        -0.343371         0.173672
 O         3.506054        -0.928218        -0.659020
 H         2.411368         3.019801        -0.339076
 H         2.306988         1.821269        -1.599966
 H         0.861915         2.491810        -0.912173
 H         3.044419         1.566622         2.283559
 H         1.297294         1.317942         2.423934
 H         3.042886        -2.244378         2.541847
 H         0.746292        -2.137511         1.417145
 H         0.189771        -0.635305         2.374950
 H         0.359248        -0.432127        -0.631870
 H         4.436392        -0.556886        -0.684894
