19
Iteration:  2681
 C         1.821301         2.185115        -0.517380
 C         1.956100         0.922286         0.326832
 C         2.274781         0.915194         1.931768
 C         2.411766        -0.613567         1.805497
 O         3.202887        -1.062570         2.864702
 C         0.993579        -1.155714         1.437095
 C         1.106237        -0.371930         0.113338
 C         2.644651        -0.359373         0.144820
 O         3.435688        -0.888440        -0.727548
 H         2.806131         2.456910        -0.896679
 H         1.135788         2.034735        -1.362254
 H         1.492715         3.067298         0.063639
 H         3.253864         1.390156         2.032872
 H         1.443727         1.324021         2.524212
 H         3.283605        -1.998394         3.195011
 H         1.062474        -2.223824         1.237449
 H         0.111495        -0.958155         2.198945
 H         0.351086        -0.202675        -0.632573
 H         3.119418        -0.917285        -1.697213
