19
Iteration:  2457charge 0 multiplicity 1
 C         1.842738         2.103557        -0.632443
 C         1.900672         0.918238         0.362833
 C         2.327184         1.034262         1.805939
 C         2.447782        -0.538175         1.814649
 O         3.119192        -1.420003         2.800427
 C         0.979571        -0.999796         1.649384
 C         1.069233        -0.302462         0.286080
 C         2.618366        -0.430851         0.191681
 O         3.498149        -0.753648        -0.890805
 H         1.470573         2.980673        -0.006372
 H         2.836846         2.427632        -0.990741
 H         1.179641         1.906868        -1.481114
 H         3.166684         1.610584         2.314240
 H         1.440767         1.293220         2.462082
 H         3.973782        -1.005692         2.954529
 H         0.967982        -2.148928         1.492166
 H         0.174386        -0.677534         2.417508
 H         0.382589        -0.386740        -0.510423
 H         3.076610        -1.624333        -1.190777
