19
Iteration:  4290
 C         1.867402         2.079727        -0.528157
 C         1.741900         0.895807         0.355590
 C         2.214113         0.944355         1.849322
 C         2.318448        -0.567550         1.789978
 O         3.326869        -1.216135         2.489949
 C         0.794212        -1.163025         1.513294
 C         0.998849        -0.417577         0.147258
 C         2.554065        -0.373331         0.259942
 O         3.783843        -0.552886        -0.457195
 H         2.823888         2.005683        -1.112162
 H         1.143785         2.144237        -1.336871
 H         1.976477         3.049140        -0.106734
 H         3.288458         1.260873         1.761619
 H         1.735521         1.585119         2.605343
 H         3.039142        -2.082767         2.842570
 H         0.758071        -2.306599         1.226166
 H        -0.044711        -0.887207         2.090019
 H         0.568534        -0.723162        -0.814212
 H         3.849450        -1.488407        -0.566063
