19
Iteration:  1057charge 0 multiplicity 1
 C         1.843294         2.084854        -0.637106
 C         1.913075         0.987960         0.378928
 C         2.504477         1.094176         1.805829
 C         2.532642        -0.523811         1.825334
 O         3.380560        -1.336117         2.520195
 C         0.998212        -0.884438         1.723861
 C         0.932847        -0.265774         0.279434
 C         2.408420        -0.434075         0.222196
 O         3.262175        -1.066530        -0.680378
 H         2.564454         1.938339        -1.417882
 H         0.791510         2.255214        -0.904324
 H         2.192484         3.040243        -0.190369
 H         3.621598         1.484246         1.881125
 H         1.776618         1.528331         2.518228
 H         4.025279        -0.766784         3.039634
 H         0.965416        -2.049202         1.560324
 H         0.132913        -0.633549         2.418596
 H         0.088751        -0.389463        -0.444166
 H         2.734252        -1.663102        -1.326165
