19
Iteration:  4104
 C         1.777925         1.979653        -0.716953
 C         1.879898         0.932001         0.321725
 C         2.235497         0.995307         1.897226
 C         2.366240        -0.571623         1.783868
 O         3.240028        -1.390094         2.526944
 C         0.869544        -1.069980         1.518426
 C         1.058512        -0.324749         0.220205
 C         2.560599        -0.306672         0.296027
 O         3.705611        -0.525908        -0.413072
 H         2.448504         2.768377        -0.426791
 H         2.232969         1.482350        -1.548167
 H         0.804375         2.210669        -0.918534
 H         3.214257         1.591119         1.984717
 H         1.592678         1.327797         2.762324
 H         3.080643        -2.348246         2.357777
 H         0.934930        -2.176441         1.278104
 H         0.127038        -0.833060         2.266116
 H         0.539065        -0.581434        -0.738946
 H         3.695480        -1.357742        -0.919688
