19
Iteration:  4223charge 0 multiplicity 1
 C         1.713400         2.155115        -0.561458
 C         1.965463         0.958357         0.383585
 C         2.276145         0.995725         1.940205
 C         2.352866        -0.571636         1.868448
 O         3.094491        -1.232295         2.946070
 C         0.983153        -1.277835         1.305802
 C         1.123139        -0.362776         0.088410
 C         2.647845        -0.324005         0.153033
 O         3.609980        -0.715217        -0.703904
 H         2.618382         2.722048        -0.778827
 H         1.199694         1.946334        -1.524736
 H         1.048458         2.757879         0.045897
 H         3.316430         1.453135         2.009431
 H         1.642557         1.520833         2.679990
 H         3.906335        -1.551392         2.528638
 H         1.208398        -2.429842         1.092924
 H         0.075657        -1.097205         1.809268
 H         0.483713        -0.497665        -0.885369
 H         3.259247        -1.513805        -1.218717
