19
Iteration:  1492charge 0 multiplicity 1
 C         1.971574         1.938906        -0.649707
 C         1.844010         0.921577         0.412325
 C         2.610024         1.024873         1.818421
 C         2.466319        -0.467341         1.781896
 O         3.322370        -1.431180         2.549282
 C         0.933126        -0.849277         1.819545
 C         0.875873        -0.315763         0.397476
 C         2.359775        -0.423873         0.165513
 O         3.250485        -0.745233        -0.860968
 H         1.453060         2.807215        -0.179335
 H         3.061880         2.182444        -0.671493
 H         1.554144         1.444835        -1.562306
 H         3.578070         1.249159         1.446508
 H         2.309937         1.640288         2.753226
 H         4.237525        -1.262465         2.314015
 H         0.664573        -1.899809         1.984512
 H         0.479384        -0.294158         2.623560
 H         0.010527        -0.303064        -0.269117
 H         3.514557        -1.673086        -0.651301
