19
Iteration:   157charge 0 multiplicity 1
 C         1.785629         2.010301        -0.619650
 C         1.834096         0.986341         0.391403
 C         2.356614         1.089933         1.807375
 C         2.427180        -0.533418         1.768909
 O         3.196178        -1.272997         2.667260
 C         1.055714        -1.083474         1.608963
 C         1.049822        -0.253283         0.235752
 C         2.522411        -0.401593         0.211276
 O         3.402743        -0.950834        -0.694541
 H         1.627908         1.574684        -1.635722
 H         0.932005         2.660507        -0.328868
 H         2.707461         2.584545        -0.647034
 H         3.343865         1.489969         1.891355
 H         1.704374         1.624691         2.580356
 H         4.101067        -0.855477         2.726268
 H         1.259366        -2.121655         1.340266
 H         0.389496        -1.047453         2.489432
 H         0.480917        -0.549701        -0.725761
 H         4.251814        -0.545711        -0.347827
