19
Iteration:  1267
 C         1.913109         2.008184        -0.700184
 C         1.905631         0.970141         0.412157
 C         2.485055         1.105892         1.804140
 C         2.439384        -0.523578         1.807231
 O         3.299202        -1.333585         2.531587
 C         0.907467        -1.027331         1.728385
 C         0.937383        -0.364705         0.384734
 C         2.410165        -0.412595         0.206696
 O         3.342597        -0.812130        -0.703876
 H         1.272246         1.778948        -1.592724
 H         1.636538         2.991644        -0.222677
 H         2.961151         2.110520        -1.084086
 H         3.590901         1.475876         1.638100
 H         2.137266         1.693394         2.591412
 H         4.238126        -1.047859         2.355598
 H         0.781996        -2.136178         1.735840
 H         0.400704        -0.507891         2.560837
 H         0.216723        -0.347883        -0.353592
 H         3.278477        -1.735501        -0.834008
