19
Iteration:  4779
 C         1.792996         2.064357        -0.568192
 C         1.885927         0.995108         0.470724
 C         2.381023         0.915568         1.859768
 C         2.370209        -0.661390         1.759997
 O         3.234661        -1.154892         2.824009
 C         0.909824        -1.203609         1.434991
 C         1.041296        -0.292520         0.170360
 C         2.509183        -0.296684         0.116352
 O         3.568765        -0.699380        -0.744742
 H         1.232006         2.924892        -0.189257
 H         2.846906         2.304028        -0.925707
 H         1.185668         1.752317        -1.469249
 H         3.479968         1.166624         1.865776
 H         1.792499         1.289123         2.635842
 H         2.940739        -1.971640         3.226035
 H         0.834430        -2.228852         1.158748
 H         0.224107        -1.027249         2.246371
 H         0.563468        -0.520812        -0.830126
 H         4.132553        -1.237112        -0.160348
