19
Iteration:  1854charge 0 multiplicity 1
 C         1.930247         2.020502        -0.630874
 C         1.823903         0.984790         0.444988
 C         2.539117         1.028804         1.827427
 C         2.476431        -0.486887         1.824802
 O         3.264939        -1.422218         2.526021
 C         0.921036        -0.934886         1.762714
 C         0.943081        -0.174149         0.361784
 C         2.436802        -0.404365         0.233626
 O         3.321568        -0.878431        -0.814500
 H         2.774217         1.677418        -1.240076
 H         1.044140         2.194843        -1.242367
 H         2.296601         2.950851        -0.256600
 H         3.578683         1.583293         1.686568
 H         2.060364         1.378796         2.820789
 H         4.097593        -1.470834         2.043694
 H         1.157838        -2.086184         1.650726
 H         0.087123        -0.632225         2.467533
 H         0.249560        -0.377824        -0.494169
 H         3.182677        -1.794016        -0.957540
