19
Iteration:  3656charge 0 multiplicity 1
 C         1.860763         2.076931        -0.617775
 C         1.942336         0.996215         0.388597
 C         2.222895         1.034619         1.878640
 C         2.411688        -0.558003         1.832697
 O         3.182319        -1.139334         2.795307
 C         1.031535        -1.136146         1.478420
 C         1.126985        -0.318622         0.244192
 C         2.663858        -0.357169         0.276174
 O         3.437373        -0.879851        -0.837567
 H         2.691500         2.746763        -0.654453
 H         1.656132         1.627193        -1.565748
 H         1.041075         2.715517        -0.344298
 H         3.200581         1.465856         2.229080
 H         1.223400         1.306962         2.361247
 H         3.009036        -2.063658         2.606744
 H         1.082625        -2.179189         1.096800
 H         0.189751        -0.893951         2.181983
 H         0.482099        -0.470703        -0.556923
 H         3.168427        -1.771488        -0.690771
