19
Iteration:  2329charge 0 multiplicity 1
 C         1.805267         2.185459        -0.533445
 C         2.014644         0.985345         0.417284
 C         2.460469         0.901617         1.840500
 C         2.379541        -0.600705         1.809721
 O         3.238695        -1.227127         2.800247
 C         0.945991        -1.029434         1.584958
 C         1.009581        -0.289543         0.124993
 C         2.496843        -0.478506         0.170294
 O         3.399048        -0.878234        -0.795230
 H         0.836535         1.943907        -1.069615
 H         1.627625         3.153744        -0.002014
 H         2.604221         2.377935        -1.240199
 H         3.518796         1.009155         1.873447
 H         2.021241         1.468026         2.589647
 H         3.969070        -0.552051         2.896944
 H         0.893968        -2.064308         1.438537
 H         0.179097        -0.748034         2.285556
 H         0.340358        -0.345824        -0.703535
 H         3.227450        -1.633576        -1.361440
