19
Iteration:  2528charge 0 multiplicity 1
 C         1.882557         2.148268        -0.488969
 C         1.954165         0.894276         0.368220
 C         2.391980         0.954677         1.856078
 C         2.467869        -0.565279         1.744170
 O         3.126440        -1.214001         2.785853
 C         0.955803        -1.107688         1.527079
 C         1.002115        -0.425328         0.209090
 C         2.490180        -0.453774         0.101007
 O         3.483202        -0.739604        -0.797078
 H         2.394592         2.891368         0.036355
 H         2.530030         1.976405        -1.334264
 H         0.942780         2.565722        -0.804355
 H         3.228998         1.672679         1.976943
 H         1.581233         1.218407         2.583554
 H         3.653447        -0.623590         3.327960
 H         1.062851        -2.129612         1.622031
 H         0.259279        -0.781934         2.276758
 H         0.242540        -0.136018        -0.538986
 H         3.383408        -1.723587        -1.017513
