19
Iteration:  3681charge 0 multiplicity 1
 C         1.930638         2.108411        -0.628283
 C         1.923048         0.954863         0.311456
 C         2.262358         0.993273         1.910800
 C         2.353132        -0.580873         1.798424
 O         3.376218        -1.159656         2.737788
 C         0.926517        -1.120373         1.561643
 C         0.979963        -0.344181         0.134428
 C         2.451989        -0.437007         0.140797
 O         3.534110        -0.781512        -0.693472
 H         2.638093         2.887947        -0.204387
 H         2.171932         1.884093        -1.678261
 H         0.942893         2.636074        -0.549286
 H         3.293407         1.274233         2.176548
 H         1.452163         1.273326         2.610479
 H         2.846172        -1.691114         3.353660
 H         0.948139        -2.148409         1.298477
 H         0.208002        -0.808324         2.401540
 H         0.214266        -0.423023        -0.696662
 H         3.568864        -1.689103        -0.423652
