19
Iteration:  4537charge 0 multiplicity 1
 C         1.808341         2.168213        -0.462456
 C         1.926447         0.868436         0.335532
 C         2.164515         0.887682         1.851155
 C         2.430418        -0.557453         1.810097
 O         3.147774        -1.294717         2.774475
 C         0.988456        -0.976488         1.551420
 C         1.102820        -0.381507         0.144027
 C         2.656466        -0.460853         0.212643
 O         3.517932        -0.739438        -0.887497
 H         0.998785         2.759926        -0.108641
 H         2.673394         2.775151        -0.211971
 H         1.837216         2.209518        -1.549334
 H         3.037799         1.518518         2.119755
 H         1.333988         1.213065         2.537627
 H         3.990037        -0.828652         3.022053
 H         0.860998        -2.033869         1.575879
 H         0.262048        -0.441277         2.259477
 H         0.378141        -0.570399        -0.576416
 H         3.817654        -1.619450        -0.822441
