19
Iteration:   942
 C         1.918345         1.904503        -0.630964
 C         2.024571         0.901834         0.410584
 C         2.390831         0.985269         1.850161
 C         2.453330        -0.558794         1.759111
 O         3.361327        -1.255830         2.543528
 C         0.953478        -0.849517         1.798195
 C         0.926772        -0.242879         0.372644
 C         2.454970        -0.467483         0.188278
 O         3.275369        -0.823022        -0.809506
 H         1.552278         1.456946        -1.642249
 H         1.293108         2.822932        -0.383802
 H         2.835926         2.355708        -1.049708
 H         3.337443         1.511095         1.850350
 H         1.666244         1.324357         2.531096
 H         4.134951        -0.788798         2.970391
 H         0.832207        -1.902007         1.756820
 H         0.267124        -0.469618         2.588461
 H         0.147369        -0.319469        -0.491272
 H         3.049670        -1.787488        -1.097630
