19
Iteration:  2036charge 0 multiplicity 1
 C         1.937352         2.024382        -0.628876
 C         1.939298         1.015069         0.467931
 C         2.418289         1.026744         1.862066
 C         2.457755        -0.534146         1.746255
 O         3.295598        -1.408938         2.482935
 C         0.961261        -0.937252         1.705850
 C         0.929213        -0.260171         0.345182
 C         2.367345        -0.344903         0.133706
 O         3.379011        -0.873845        -0.662354
 H         1.016784         2.617386        -0.745588
 H         2.945328         2.487927        -0.387323
 H         2.207961         1.510458        -1.631987
 H         3.376849         1.498801         1.827142
 H         1.728035         1.460994         2.617963
 H         4.249348        -1.391651         2.173612
 H         0.923992        -2.021192         1.732332
 H         0.203731        -0.576453         2.507426
 H        -0.010602        -0.055058        -0.259757
 H         3.205099        -1.865383        -0.794315
