19
Iteration:  4097charge 0 multiplicity 1
 C         1.795521         1.951777        -0.664787
 C         1.890489         0.982643         0.375528
 C         2.211150         0.974854         1.845164
 C         2.325001        -0.570584         1.804586
 O         3.195771        -1.380397         2.512017
 C         0.895585        -1.044951         1.576266
 C         1.107150        -0.405567         0.197742
 C         2.575495        -0.348171         0.272411
 O         3.720755        -0.509157        -0.435940
 H         2.401196         2.959096        -0.567253
 H         2.053975         1.498525        -1.668358
 H         0.708462         2.476086        -0.818645
 H         3.136234         1.450712         1.912932
 H         1.562346         1.258798         2.649900
 H         3.245693        -2.265465         2.114722
 H         0.807150        -2.082567         1.495977
 H         0.149376        -0.545451         2.310819
 H         0.721235        -0.531911        -0.875080
 H         3.724652        -1.434916        -0.887556
