19
Iteration:  3399
 C         1.773976         2.063880        -0.709621
 C         1.886763         0.955058         0.409540
 C         2.253229         1.078293         1.899744
 C         2.420517        -0.490462         1.797427
 O         3.154847        -1.348500         2.572565
 C         1.062760        -1.060923         1.521914
 C         1.021864        -0.223310         0.239038
 C         2.576324        -0.363367         0.262221
 O         3.548828        -1.030767        -0.536200
 H         2.759586         2.466924        -0.915550
 H         1.123689         1.759663        -1.521162
 H         1.266038         2.963416        -0.303058
 H         3.276132         1.514116         1.983038
 H         1.517255         1.514986         2.654375
 H         4.093110        -1.164914         2.400056
 H         1.076731        -2.211653         1.369243
 H         0.289081        -0.745722         2.221916
 H         0.307714        -0.104288        -0.550278
 H         3.855502        -0.431087        -1.199841
