19
Iteration:  2550
 C         1.886395         2.091468        -0.544850
 C         1.844170         0.959672         0.396931
 C         2.233032         0.996426         1.878244
 C         2.354422        -0.577912         1.828478
 O         3.196340        -1.340150         2.593968
 C         0.978611        -0.981821         1.583788
 C         1.072032        -0.381123         0.179475
 C         2.588475        -0.378912         0.262454
 O         3.525940        -0.777406        -0.772438
 H         2.591877         2.777779        -0.204969
 H         2.219084         1.789707        -1.517585
 H         0.953980         2.638234        -0.588138
 H         3.278536         1.433638         1.881568
 H         1.593801         1.572920         2.608142
 H         4.012472        -0.912642         2.946050
 H         0.885743        -2.020558         1.570954
 H         0.233185        -0.596549         2.239991
 H         0.441215        -0.783843        -0.619550
 H         3.515969        -1.734430        -0.724896
