19
Iteration:  2477
 C         1.878244         2.074396        -0.485079
 C         1.993851         0.901346         0.394968
 C         2.298681         1.037371         1.950634
 C         2.448994        -0.517454         1.823499
 O         3.027326        -1.284639         2.865693
 C         1.099505        -0.988098         1.504215
 C         1.161090        -0.456019         0.189150
 C         2.598316        -0.419236         0.095430
 O         3.351990        -0.747273        -0.948705
 H         1.628235         3.075405        -0.059823
 H         2.718445         2.152826        -1.230284
 H         0.918593         1.804257        -1.085020
 H         3.298200         1.433141         2.153130
 H         1.551176         1.443309         2.649920
 H         3.994469        -1.067034         2.956133
 H         0.934540        -2.157913         1.525655
 H         0.371180        -0.550585         2.267729
 H         0.455837        -0.491306        -0.580819
 H         3.084427        -1.699421        -1.189224
