19
Iteration:  1666
 C         1.907900         1.980551        -0.708816
 C         1.961769         0.984150         0.473007
 C         2.551984         0.978090         1.825958
 C         2.519937        -0.612617         1.723604
 O         3.270731        -1.461890         2.499718
 C         0.935528        -0.830434         1.781921
 C         0.948455        -0.152770         0.510077
 C         2.397263        -0.396643         0.181538
 O         3.215868        -0.827370        -0.834790
 H         1.155692         2.735193        -0.480630
 H         2.911654         2.292150        -1.011958
 H         1.502158         1.377505        -1.559735
 H         3.520262         1.530599         1.848315
 H         1.958424         1.421111         2.587259
 H         4.166900        -1.022057         2.629138
 H         0.800740        -1.911400         1.802490
 H         0.602713        -0.349888         2.776983
 H         0.129252        -0.140891        -0.284657
 H         3.553023        -1.694209        -0.646065
