19
Iteration:   136charge 0 multiplicity 1
 C         1.763247         2.123648        -0.705314
 C         1.981255         0.980861         0.349195
 C         2.252097         1.048065         1.884427
 C         2.435773        -0.516155         1.871933
 O         3.306775        -1.259508         2.669484
 C         0.965687        -1.078095         1.579061
 C         1.033788        -0.348221         0.257394
 C         2.597902        -0.358819         0.242598
 O         3.379543        -1.003143        -0.690248
 H         2.102944         1.633183        -1.629175
 H         0.715263         2.450492        -0.713578
 H         2.466224         2.938701        -0.489779
 H         3.212238         1.478354         2.167712
 H         1.524595         1.442892         2.648136
 H         4.251417        -1.288983         2.393018
 H         0.863161        -2.196753         1.460571
 H         0.022087        -0.704609         2.169511
 H         0.292608        -0.378137        -0.617520
 H         3.980924        -0.379202        -1.046765
