19
Iteration:   675charge 0 multiplicity 1
 C         1.698412         2.099904        -0.621613
 C         1.865997         0.869134         0.360519
 C         2.411065         1.122718         1.787259
 C         2.443168        -0.582260         1.783732
 O         3.307851        -1.334637         2.748465
 C         0.879869        -0.889296         1.639656
 C         1.024258        -0.422603         0.238236
 C         2.531786        -0.478325         0.175672
 O         3.516656        -0.916622        -0.721273
 H         2.451798         2.072972        -1.409321
 H         0.697713         2.120812        -0.935498
 H         1.897154         2.986789         0.027958
 H         3.444071         1.475153         1.637277
 H         1.788314         1.701923         2.606426
 H         4.088279        -0.783046         2.979426
 H         0.785312        -2.029485         1.855406
 H         0.151413        -0.398464         2.251747
 H         0.300620        -0.556839        -0.631852
 H         3.720880        -0.201640        -1.420385
