19
Iteration:  3562
 C         1.794643         2.094289        -0.643604
 C         1.786796         0.998819         0.368999
 C         2.269574         1.076741         1.794824
 C         2.365304        -0.485429         1.849768
 O         3.307139        -1.407110         2.468349
 C         0.879639        -0.984992         1.605903
 C         1.081684        -0.373812         0.157970
 C         2.556044        -0.335789         0.285942
 O         3.563182        -1.003332        -0.446436
 H         2.689799         2.796452        -0.651686
 H         1.558684         1.541278        -1.567530
 H         0.987710         2.894133        -0.527882
 H         3.310646         1.410739         1.834537
 H         1.642064         1.476492         2.545234
 H         4.169980        -0.950049         2.389408
 H         0.830125        -2.067910         1.675722
 H         0.116320        -0.507145         2.304922
 H         0.475746        -0.531131        -0.768494
 H         4.257565        -0.371862        -0.860636
