19
Iteration:  2337charge 0 multiplicity 1
 C         1.824103         2.132530        -0.519555
 C         1.933059         0.991990         0.417998
 C         2.442524         0.971906         1.848000
 C         2.434857        -0.580224         1.837317
 O         3.236389        -1.233680         2.697034
 C         0.895333        -1.060341         1.493015
 C         1.028051        -0.279667         0.252308
 C         2.563545        -0.449907         0.145926
 O         3.392020        -0.905172        -0.764778
 H         0.848030         1.993718        -1.056757
 H         1.738502         2.994900         0.144168
 H         2.578081         2.195147        -1.279138
 H         3.598945         1.238971         1.854960
 H         2.016777         1.586222         2.701443
 H         3.979332        -0.629442         2.985280
 H         0.746108        -2.153750         1.318779
 H         0.089201        -0.638933         2.105288
 H         0.431494        -0.260478        -0.647118
 H         3.231230        -1.806044        -0.987984
