19
Iteration:  1812charge 0 multiplicity 1
 C         1.815407         2.132308        -0.526895
 C         2.052336         0.909398         0.359479
 C         2.539701         0.939245         1.793365
 C         2.451857        -0.501253         1.750462
 O         3.255593        -1.376655         2.463902
 C         0.862647        -0.765919         1.799092
 C         0.883934        -0.248332         0.403645
 C         2.470566        -0.539195         0.196341
 O         3.409493        -0.926223        -0.759669
 H         2.731354         2.456163        -1.122857
 H         1.028794         1.731019        -1.229093
 H         1.537804         2.966928         0.135069
 H         3.508913         1.331425         1.780746
 H         1.922240         1.500276         2.508763
 H         4.164305        -1.195863         2.248001
 H         0.626393        -1.888769         1.711547
 H         0.298237        -0.271930         2.602313
 H         0.130479        -0.031232        -0.407000
 H         3.263482        -1.856876        -1.049615
