19
Iteration:  3034
 C         1.808866         2.041778        -0.519829
 C         1.995731         0.929342         0.403705
 C         2.297213         1.008055         1.863973
 C         2.384747        -0.582717         1.774105
 O         3.158964        -1.259714         2.723157
 C         0.994210        -1.016890         1.573377
 C         1.004061        -0.297327         0.218159
 C         2.564992        -0.360056         0.098664
 O         3.546535        -0.871152        -0.752806
 H         2.250163         2.978956        -0.134391
 H         2.453969         1.853694        -1.401852
 H         0.771333         2.424315        -0.687940
 H         3.258152         1.342373         2.250727
 H         1.484737         1.304778         2.527328
 H         3.921389        -0.642005         2.893147
 H         0.800402        -2.068309         1.411749
 H         0.398855        -0.752207         2.458051
 H         0.439797        -0.473591        -0.769193
 H         3.109019        -1.525584        -1.264411
