19
Iteration:  2881charge 0 multiplicity 1
 C         1.881338         2.348922        -0.526787
 C         1.932577         0.921073         0.294466
 C         2.358567         0.940677         1.808478
 C         2.429872        -0.583989         1.824187
 O         3.105831        -1.166621         2.947282
 C         1.090923        -1.133986         1.529203
 C         1.042897        -0.378374         0.158527
 C         2.590241        -0.437192         0.106972
 O         3.381327        -0.907218        -0.841632
 H         2.760416         2.863821        -0.825990
 H         1.118532         2.257892        -1.306301
 H         1.218193         2.900793         0.163326
 H         3.330473         1.370171         2.001830
 H         1.592358         1.429337         2.371689
 H         3.046975        -2.121841         2.804503
 H         1.168032        -2.185934         1.243695
 H         0.270731        -0.919873         2.253403
 H         0.306396        -0.859367        -0.392826
 H         4.245587        -0.660923        -0.590685
