19
Iteration:  1519charge 0 multiplicity 1
 C         1.906561         2.099662        -0.676179
 C         1.969397         0.957755         0.353367
 C         2.599921         1.007198         1.850795
 C         2.522029        -0.522598         1.744742
 O         3.279532        -1.413917         2.597230
 C         0.993098        -0.925742         1.785293
 C         0.902433        -0.197600         0.477704
 C         2.406158        -0.431843         0.175203
 O         3.164791        -0.891914        -0.896986
 H         0.967951         2.596209        -0.575970
 H         2.718372         2.789567        -0.481596
 H         2.106398         1.637192        -1.651485
 H         3.584377         1.584180         1.758580
 H         1.975106         1.411162         2.622786
 H         4.033190        -0.927338         2.908489
 H         0.761129        -2.013579         1.586056
 H         0.506467        -0.653561         2.859649
 H         0.128274        -0.472190        -0.231701
 H         3.275920        -1.885496        -0.784257
