19
Iteration:  3184charge 0 multiplicity 1
 C         1.877683         2.011515        -0.733329
 C         1.930304         1.025043         0.392687
 C         2.171491         1.042443         1.983087
 C         2.409849        -0.596245         1.792712
 O         3.401836        -1.318241         2.511760
 C         0.881213        -1.037757         1.589924
 C         1.025876        -0.278691         0.185881
 C         2.505489        -0.381671         0.222783
 O         3.567296        -0.775755        -0.523790
 H         2.783205         2.001701        -1.299840
 H         0.942212         1.831006        -1.338241
 H         1.645209         3.078229        -0.515396
 H         3.042792         1.685587         2.151017
 H         1.335644         1.358372         2.704264
 H         3.108792        -2.271032         2.499160
 H         0.619599        -2.079850         1.402292
 H         0.210732        -0.556228         2.432147
 H         0.363492        -0.219729        -0.758070
 H         3.605559        -1.715062        -0.531075
