19
Iteration:  2179
 C         1.905404         2.153901        -0.600811
 C         1.946239         0.979923         0.397562
 C         2.415159         1.116388         1.821472
 C         2.453008        -0.527980         1.799382
 O         3.236416        -1.427851         2.590033
 C         0.950688        -0.955381         1.730430
 C         0.953512        -0.382395         0.218774
 C         2.439098        -0.429697         0.145577
 O         3.422952        -0.868893        -0.720823
 H         2.825456         2.299322        -1.124572
 H         1.042235         2.046930        -1.261008
 H         1.772266         3.055362         0.004332
 H         3.408370         1.543031         2.033951
 H         1.539169         1.450024         2.536161
 H         4.128305        -1.321251         2.146736
 H         0.976497        -2.041609         1.835381
 H         0.306954        -0.472794         2.549068
 H         0.076132        -0.378207        -0.388995
 H         3.386344        -1.876738        -0.636786
