19
Iteration:  3492charge 0 multiplicity 1
 C         1.886512         2.135310        -0.570176
 C         1.915510         0.903056         0.308771
 C         2.399662         0.964003         1.801838
 C         2.405793        -0.527394         1.862408
 O         3.186284        -1.176201         2.884368
 C         0.930953        -1.105031         1.575708
 C         1.051015        -0.458490         0.145317
 C         2.549227        -0.421943         0.233519
 O         3.341164        -0.793006        -0.886225
 H         2.698953         2.869997        -0.271593
 H         2.072957         1.709853        -1.602840
 H         0.955402         2.755995        -0.570848
 H         3.435237         1.332845         1.757995
 H         1.736440         1.416807         2.557972
 H         3.738627        -0.465437         3.283547
 H         1.228133        -2.183849         1.540471
 H         0.030749        -0.883255         2.263667
 H         0.561876        -0.652403        -0.847261
 H         4.196942        -1.251646        -0.616437
