19
Iteration:   145
 C         1.781257         2.071008        -0.687997
 C         1.939927         0.981171         0.379158
 C         2.293782         1.056287         1.828325
 C         2.395651        -0.555036         1.840026
 O         3.280887        -1.292377         2.692937
 C         0.989337        -1.078439         1.574669
 C         1.079925        -0.316530         0.273675
 C         2.577992        -0.346620         0.244910
 O         3.366823        -0.967812        -0.665247
 H         1.861767         1.718521        -1.753249
 H         0.779411         2.551851        -0.652562
 H         2.456028         2.877731        -0.526094
 H         3.223022         1.554022         1.883724
 H         1.501617         1.564548         2.458305
 H         4.160839        -1.016244         2.318555
 H         1.045593        -2.116878         1.305177
 H         0.276571        -0.939749         2.365250
 H         0.269655        -0.271573        -0.592084
 H         4.134687        -0.495367        -0.917926
