19
Iteration:  2438
 C         1.847767         2.125727        -0.665533
 C         1.963110         0.971413         0.404256
 C         2.322177         0.968349         1.872460
 C         2.403738        -0.632339         1.830445
 O         3.227146        -1.353124         2.655877
 C         0.940543        -1.040864         1.634195
 C         0.989760        -0.311977         0.214011
 C         2.486094        -0.388402         0.169592
 O         3.505822        -0.769131        -0.686091
 H         1.198717         2.963840        -0.337331
 H         2.812452         2.617114        -0.800061
 H         1.592996         1.684600        -1.582606
 H         3.407152         1.385669         1.774663
 H         1.922255         1.640530         2.636312
 H         4.020575        -0.842759         2.799204
 H         0.728764        -2.067523         1.523610
 H         0.274138        -0.588513         2.357714
 H         0.224878        -0.448665        -0.577720
 H         3.421326        -1.677752        -1.064907
