19
Iteration:  2351
 C         1.807809         2.091993        -0.513607
 C         1.926946         0.954826         0.441050
 C         2.398529         1.058118         1.878514
 C         2.406704        -0.505751         1.755903
 O         3.255304        -1.342804         2.583445
 C         0.894784        -1.015088         1.587553
 C         1.036191        -0.294214         0.204181
 C         2.560306        -0.338187         0.230090
 O         3.436960        -0.962984        -0.768517
 H         0.894953         2.281535        -1.159913
 H         2.042475         3.073035        -0.038549
 H         2.696033         2.008704        -1.130078
 H         3.340847         1.596468         1.865052
 H         1.673541         1.413263         2.523067
 H         3.881547        -0.739302         2.961094
 H         0.974137        -2.027443         1.368568
 H         0.162397        -0.879274         2.348507
 H         0.308764        -0.299387        -0.575539
 H         3.344254        -1.943479        -0.455885
