19
Iteration:  4833charge 0 multiplicity 1
 C         1.978096         2.128640        -0.550164
 C         1.870016         0.943364         0.407851
 C         2.037472         1.068495         1.885550
 C         2.410448        -0.629308         1.798619
 O         3.330467        -1.288385         2.573595
 C         0.916113        -1.077108         1.539290
 C         1.046242        -0.383876         0.205839
 C         2.614193        -0.355945         0.265385
 O         3.488607        -0.871413        -0.640146
 H         1.094867         2.752389        -0.663256
 H         2.683731         2.881895        -0.127260
 H         2.253087         1.921642        -1.615561
 H         2.970590         1.666325         2.058468
 H         1.223958         1.356547         2.514018
 H         3.956954        -1.912986         2.229164
 H         0.702518        -2.104293         1.486073
 H         0.303069        -0.644586         2.333880
 H         0.417329        -0.501247        -0.673465
 H         3.590894        -0.181281        -1.343943
