19
Iteration:  1145charge 0 multiplicity 1
 C         1.872626         2.066689        -0.664170
 C         1.930709         0.903630         0.365800
 C         2.553672         0.977547         1.787359
 C         2.477228        -0.488972         1.786715
 O         3.220763        -1.275551         2.691784
 C         1.015699        -0.911384         1.805104
 C         0.917823        -0.404086         0.352770
 C         2.439326        -0.488646         0.150612
 O         3.321316        -0.819673        -0.839759
 H         1.844486         1.662958        -1.683668
 H         1.026832         2.718921        -0.314165
 H         2.790116         2.684103        -0.514028
 H         3.598851         1.434140         1.771069
 H         2.087742         1.496253         2.528657
 H         4.209335        -1.224775         2.517572
 H         0.853845        -2.045007         1.997627
 H         0.368882        -0.226895         2.418535
 H        -0.022282        -0.260089        -0.294284
 H         2.850058        -1.559715        -1.315893
