19
Iteration:  3385
 C         1.803641         2.055561        -0.677531
 C         1.884469         1.022451         0.349755
 C         2.273466         1.006363         1.892426
 C         2.434574        -0.549679         1.722633
 O         3.259562        -1.404359         2.521521
 C         0.893904        -0.920999         1.635658
 C         0.948296        -0.339642         0.204069
 C         2.531315        -0.330159         0.153010
 O         3.617085        -0.938483        -0.389066
 H         2.803094         2.478100        -0.984762
 H         1.571674         1.658140        -1.663443
 H         1.153160         2.863050        -0.304255
 H         3.181903         1.643890         2.072162
 H         1.496224         1.313753         2.625694
 H         4.202020        -1.267710         2.336328
 H         0.893922        -1.986937         1.541707
 H         0.255913        -0.582023         2.534659
 H         0.128642        -0.395626        -0.560992
 H         3.822916        -0.559388        -1.312510
