19
Iteration:  4448charge 0 multiplicity 1
 C         1.720190         2.053943        -0.638174
 C         1.903813         1.007161         0.385818
 C         2.083065         1.019013         2.027957
 C         2.411176        -0.560619         1.791955
 O         3.210231        -1.377001         2.462980
 C         0.856028        -1.062517         1.514490
 C         1.143684        -0.278717         0.172386
 C         2.638084        -0.328125         0.294500
 O         3.751576        -0.848162        -0.518367
 H         1.823433         2.952410        -0.125636
 H         2.476158         1.938808        -1.337394
 H         0.739250         2.028764        -1.072445
 H         2.998253         1.537523         2.267357
 H         1.206305         1.438444         2.668683
 H         4.036538        -1.328200         1.918019
 H         0.700502        -2.086248         1.540806
 H         0.271629        -0.611258         2.404176
 H         0.715899        -0.638623        -0.850338
 H         3.352088        -0.817105        -1.351327
