19
Iteration:  2083charge 0 multiplicity 1
 C         1.997114         2.165792        -0.522074
 C         1.922001         0.917487         0.364530
 C         2.419910         0.956901         1.825239
 C         2.441274        -0.555617         1.824723
 O         3.326451        -1.310985         2.696820
 C         0.993720        -0.904577         1.649860
 C         0.967305        -0.353459         0.311518
 C         2.440894        -0.428106         0.123988
 O         3.284179        -0.889955        -0.921744
 H         1.771762         3.021969         0.177860
 H         2.894925         2.122813        -1.228593
 H         0.998342         2.182742        -1.174215
 H         3.471897         1.276945         2.078890
 H         1.715830         1.368352         2.490760
 H         3.666598        -0.618932         3.307691
 H         0.732217        -1.971148         1.621310
 H         0.269973        -0.416515         2.298255
 H         0.174522        -0.435869        -0.377955
 H         3.119947        -1.884073        -0.784785
