19
Iteration:  4484charge 0 multiplicity 1
 C         1.888464         2.100675        -0.624427
 C         1.887240         1.054987         0.451322
 C         2.173828         0.996366         1.927490
 C         2.337763        -0.558514         1.747932
 O         3.303102        -1.266899         2.527729
 C         1.012521        -1.265660         1.465601
 C         0.979492        -0.274787         0.127653
 C         2.494961        -0.295232         0.263254
 O         3.570338        -0.844062        -0.412633
 H         1.768424         3.014345        -0.080400
 H         2.856981         2.245151        -1.155922
 H         1.077408         2.007709        -1.357534
 H         3.198617         1.495975         2.116150
 H         1.377631         1.326133         2.685200
 H         4.243683        -1.290664         2.257080
 H         1.038264        -2.261290         0.974455
 H         0.144926        -1.188408         2.172683
 H         0.468981        -0.437818        -0.760684
 H         3.330590        -1.209512        -1.229943
