19
Iteration:   414charge 0 multiplicity 1
 C         1.874763         2.148032        -0.549387
 C         1.833843         0.953158         0.333062
 C         2.142778         1.035334         1.872957
 C         2.384447        -0.555751         1.755998
 O         3.278619        -1.058996         2.689603
 C         1.009208        -1.207863         1.627412
 C         1.112956        -0.572089         0.132441
 C         2.563661        -0.348441         0.153941
 O         3.448685        -0.937284        -0.708441
 H         1.713122         3.123497         0.024618
 H         2.751873         2.270813        -1.252111
 H         0.934100         2.257492        -1.208553
 H         3.278390         1.344345         1.996053
 H         1.487710         1.400173         2.703102
 H         3.692077        -0.370207         3.242813
 H         1.131310        -2.304378         1.525020
 H         0.357167        -0.924062         2.370804
 H         0.349941        -0.520833        -0.629088
 H         4.373214        -0.755747        -0.639496
