19
Iteration:   195
 C         1.775057         2.083778        -0.587589
 C         1.932442         0.904312         0.330267
 C         2.274100         0.995799         1.775349
 C         2.421243        -0.572001         1.818795
 O         3.315385        -1.230481         2.690031
 C         0.931469        -1.002549         1.725832
 C         1.031737        -0.402532         0.190361
 C         2.521058        -0.453451         0.192414
 O         3.471299        -0.810387        -0.796167
 H         1.001876         1.987802        -1.371686
 H         1.477577         3.030139        -0.106017
 H         2.760938         2.315999        -1.120375
 H         3.379645         1.263121         1.917310
 H         1.591355         1.397287         2.516278
 H         3.609315        -0.640446         3.377767
 H         0.539258        -2.075688         1.665293
 H         0.227770        -0.282194         2.376383
 H         0.720817        -0.660930        -0.798834
 H         4.229498        -1.309471        -0.355320
