19
Iteration:    95charge 0 multiplicity 1
 C         1.844866         2.108360        -0.543021
 C         1.892765         0.910309         0.337863
 C         2.293098         1.027793         1.768435
 C         2.423167        -0.487243         1.754745
 O         3.397426        -1.145717         2.685736
 C         0.897158        -1.036842         1.591854
 C         0.969757        -0.362877         0.243898
 C         2.511871        -0.464252         0.215504
 O         3.455072        -0.982849        -0.669485
 H         2.453367         1.938722        -1.434759
 H         0.814859         2.343393        -0.864295
 H         2.101800         3.029779         0.133331
 H         3.369193         1.447564         1.975966
 H         1.637183         1.630925         2.397187
 H         3.538634        -2.036334         2.272247
 H         0.743812        -2.175446         1.736673
 H         0.063658        -0.709653         2.360294
 H         0.393627        -0.556452        -0.584652
 H         4.025768        -0.185592        -0.926467
