19
Iteration:  1065charge 0 multiplicity 1
 C         1.859864         2.041056        -0.663985
 C         1.886312         0.980768         0.375822
 C         2.487840         1.116411         1.866684
 C         2.473949        -0.460587         1.800600
 O         3.360184        -1.355717         2.489571
 C         1.009216        -0.921194         1.706439
 C         0.944612        -0.246370         0.387858
 C         2.414950        -0.455999         0.224390
 O         3.294206        -1.056130        -0.704025
 H         2.509908         1.953107        -1.553780
 H         0.998771         2.436099        -1.223173
 H         2.287747         2.947817        -0.145710
 H         3.489642         1.518122         1.781536
 H         1.933882         1.605769         2.567404
 H         4.011208        -0.746392         2.950753
 H         1.110833        -1.937247         1.375719
 H         0.241883        -0.870629         2.481610
 H         0.146324        -0.268504        -0.262334
 H         2.648070        -1.690577        -1.159221
