19
Iteration:  4834
 C         1.978433         2.127061        -0.551698
 C         1.868274         0.948602         0.404782
 C         2.043768         1.051943         1.886101
 C         2.404700        -0.631097         1.801631
 O         3.330214        -1.283857         2.573699
 C         0.912742        -1.070335         1.539958
 C         1.046360        -0.385269         0.201971
 C         2.607839        -0.358612         0.253762
 O         3.489869        -0.872026        -0.629187
 H         1.086107         2.766650        -0.655143
 H         2.660787         2.911358        -0.119058
 H         2.277385         1.935875        -1.614796
 H         2.976102         1.688699         2.053352
 H         1.276067         1.353322         2.525235
 H         3.987235        -1.893425         2.232293
 H         0.727771        -2.120040         1.478410
 H         0.313602        -0.668134         2.324845
 H         0.439288        -0.484178        -0.646793
 H         3.561336        -0.175262        -1.366798
