19
Iteration:  4995charge 0 multiplicity 1
 C         2.042246         2.124460        -0.437956
 C         1.851323         0.898067         0.427069
 C         2.105330         1.029376         1.891011
 C         2.436554        -0.582920         1.803316
 O         3.150702        -1.294079         2.652148
 C         1.005070        -1.051352         1.480868
 C         1.052369        -0.409616         0.143985
 C         2.565443        -0.416993         0.209069
 O         3.515531        -0.728910        -0.737632
 H         2.131192         3.005210         0.137343
 H         3.005313         1.881779        -0.864948
 H         1.259946         2.138361        -1.159718
 H         2.913571         1.634469         2.062624
 H         1.237999         1.296057         2.592934
 H         4.106890        -1.053372         2.761181
 H         1.133461        -2.118088         1.429293
 H         0.129380        -0.845892         2.204936
 H         0.449003        -0.535320        -0.688327
 H         3.042888        -1.110231        -1.559499
