19
Iteration:  2649
 C         1.849263         2.221855        -0.499180
 C         1.881882         0.883562         0.378818
 C         2.165226         0.999838         1.884663
 C         2.375514        -0.568763         1.738827
 O         3.220615        -1.147897         2.657241
 C         0.924198        -1.073889         1.586495
 C         1.028996        -0.407117         0.199716
 C         2.670679        -0.386635         0.195901
 O         3.642863        -0.937544        -0.702583
 H         2.763896         2.325180        -0.951929
 H         1.053334         2.332840        -1.195325
 H         1.794516         3.083245         0.168850
 H         3.068183         1.616435         2.025049
 H         1.317736         1.424560         2.488384
 H         3.403500        -2.076464         2.494111
 H         0.872896        -2.144189         1.494789
 H         0.241990        -0.684658         2.374804
 H         0.407527        -0.510634        -0.679852
 H         3.292385        -1.009413        -1.557472
