19
Iteration:  2519
 C         1.891056         2.151517        -0.513578
 C         1.986766         0.959187         0.387367
 C         2.371995         0.936005         1.800455
 C         2.421560        -0.655567         1.827037
 O         3.155681        -1.210074         2.890273
 C         1.024539        -1.094668         1.527116
 C         0.957246        -0.368044         0.167639
 C         2.505532        -0.459655         0.110234
 O         3.473613        -0.742696        -0.854123
 H         2.194711         2.968204         0.125867
 H         2.565894         2.176798        -1.375815
 H         0.842369         2.478573        -0.781634
 H         3.348889         1.299280         1.970714
 H         1.603097         1.415676         2.402173
 H         3.669199        -0.505740         3.297477
 H         0.922030        -2.179869         1.328824
 H         0.208368        -0.879860         2.119563
 H         0.038095        -0.455723        -0.374025
 H         3.407438        -1.682253        -1.212675
