19
Iteration:  2903
 C         1.818620         2.193074        -0.458246
 C         1.896066         0.904755         0.432249
 C         2.310102         1.038752         1.834379
 C         2.448490        -0.505029         1.810658
 O         3.161242        -1.198863         2.784800
 C         0.957092        -1.083223         1.529036
 C         1.146062        -0.413375         0.119544
 C         2.663409        -0.446647         0.163185
 O         3.416169        -0.937702        -0.856007
 H         2.802243         2.255996        -0.898107
 H         1.059948         2.205609        -1.263238
 H         1.519009         3.084377         0.137299
 H         3.199682         1.637158         1.896249
 H         1.603830         1.450878         2.534174
 H         2.485278        -1.776389         3.230798
 H         0.957859        -2.161686         1.415413
 H         0.170938        -0.805146         2.276745
 H         0.493731        -0.382673        -0.719201
 H         4.364186        -0.571532        -0.889500
