19
Iteration:   340
 C         1.719890         1.993233        -0.622603
 C         1.817325         0.916471         0.329541
 C         2.345755         1.014325         1.840705
 C         2.400056        -0.473023         1.821059
 O         3.229643        -1.141995         2.710182
 C         1.008237        -1.078979         1.600287
 C         1.054803        -0.430203         0.180520
 C         2.527636        -0.393401         0.256937
 O         3.570139        -0.858883        -0.716755
 H         0.963249         2.745861        -0.263891
 H         2.604367         2.604086        -0.867856
 H         1.339984         1.677805        -1.570566
 H         3.322661         1.512782         1.772900
 H         1.767845         1.587366         2.607603
 H         3.409147        -1.962180         2.167581
 H         1.046813        -2.140795         1.723825
 H         0.234874        -0.545926         2.403221
 H         0.410412        -0.451521        -0.670903
 H         4.390501        -0.577851        -0.316979
