19
Iteration:  4463charge 0 multiplicity 1
 C         1.773978         2.071172        -0.686985
 C         1.920666         1.031035         0.481235
 C         2.065990         0.991468         2.010699
 C         2.355536        -0.550685         1.790116
 O         3.301754        -1.391067         2.473351
 C         0.968607        -1.045425         1.491686
 C         1.093891        -0.320288         0.166089
 C         2.593684        -0.286584         0.242045
 O         3.649023        -0.869319        -0.437393
 H         1.801625         3.179667        -0.459640
 H         2.607639         2.041929        -1.505007
 H         0.860229         1.934734        -1.324590
 H         2.858870         1.637254         2.562141
 H         1.124006         1.103217         2.626097
 H         4.147760        -1.304087         1.984668
 H         1.028344        -2.199856         1.237747
 H         0.054952        -0.771207         2.074496
 H         0.370842        -0.091011        -0.528789
 H         3.446487        -1.040248        -1.411148
