19
Iteration:    46
 C         1.754392         2.003004        -0.602901
 C         1.876934         0.936477         0.402977
 C         2.344714         1.104034         1.880359
 C         2.481082        -0.522800         1.824551
 O         3.320700        -1.224869         2.629369
 C         0.995009        -1.013042         1.583490
 C         1.054536        -0.285301         0.203386
 C         2.550642        -0.419889         0.198717
 O         3.419920        -0.911047        -0.775052
 H         2.354050         1.662713        -1.468850
 H         0.680684         2.081521        -0.874592
 H         2.077282         2.910483        -0.225420
 H         3.128498         1.766970         1.917453
 H         1.580954         1.411407         2.647786
 H         2.912786        -1.671946         3.367279
 H         0.916413        -2.058112         1.343597
 H         0.214688        -0.825357         2.359023
 H         0.302072        -0.442016        -0.682153
 H         4.073646        -1.269932        -0.193572
