19
Iteration:  3046
 C         1.808641         2.146159        -0.580714
 C         1.905312         0.998903         0.407769
 C         2.348859         0.973066         1.906439
 C         2.436413        -0.523052         1.820167
 O         3.103370        -1.288670         2.805644
 C         0.970892        -1.081751         1.545024
 C         1.113666        -0.373391         0.170046
 C         2.628778        -0.353683         0.193951
 O         3.476452        -0.885594        -0.810850
 H         2.253538         3.082273        -0.166242
 H         2.225341         1.869961        -1.561141
 H         0.736195         2.216993        -0.851868
 H         3.324700         1.478456         1.837878
 H         1.739084         1.419341         2.656923
 H         4.023415        -0.996827         2.879039
 H         1.165237        -2.184377         1.531693
 H         0.161938        -0.728097         2.150840
 H         0.374616        -0.356818        -0.717568
 H         2.939425        -1.433024        -1.466432
