19
Iteration:   394
 C         1.767142         2.071308        -0.606273
 C         1.856694         0.952809         0.328542
 C         2.143007         1.029737         1.909299
 C         2.417308        -0.529454         1.830685
 O         3.348778        -1.142767         2.636346
 C         1.025006        -1.126272         1.532806
 C         1.111924        -0.392926         0.208608
 C         2.640440        -0.385763         0.277000
 O         3.410788        -0.961689        -0.718435
 H         1.651130         3.126508        -0.167514
 H         2.744792         2.028636        -1.181729
 H         0.971308         2.073278        -1.350671
 H         3.061800         1.684676         2.004307
 H         1.217708         1.386178         2.485842
 H         3.276514        -0.825551         3.576789
 H         1.191256        -2.152065         1.384000
 H         0.050205        -0.905090         2.008460
 H         0.713791        -0.721690        -0.689278
 H         4.203240        -0.447347        -0.771011
