19
Iteration:  2247
 C         1.936225         2.032310        -0.698593
 C         1.956109         0.970980         0.384055
 C         2.405975         0.924910         1.929988
 C         2.359812        -0.651218         1.827517
 O         3.315303        -1.297744         2.643468
 C         0.913312        -1.020512         1.687002
 C         0.914611        -0.159412         0.314373
 C         2.489830        -0.393289         0.176427
 O         3.395925        -0.814954        -0.797948
 H         2.500582         1.772994        -1.584484
 H         0.908643         2.280704        -0.978992
 H         2.516755         2.973285        -0.456709
 H         3.434847         1.423851         2.083129
 H         1.554328         1.306424         2.623893
 H         4.081196        -0.669170         2.634275
 H         0.789990        -2.053101         1.228937
 H         0.218067        -0.832910         2.543033
 H         0.187248        -0.083828        -0.510429
 H         3.486399        -1.744757        -0.803851
