19
Iteration:  3054
 C         1.766801         2.205770        -0.651507
 C         1.874344         0.958059         0.397767
 C         2.379822         1.010634         1.908484
 C         2.493705        -0.532762         1.882623
 O         3.063307        -1.299385         2.835380
 C         1.000562        -1.089143         1.479026
 C         1.222670        -0.399178         0.187475
 C         2.609155        -0.404770         0.234439
 O         3.429888        -0.859557        -0.823310
 H         2.163188         3.129048        -0.271412
 H         2.391305         1.863212        -1.511128
 H         0.702058         2.548723        -0.733114
 H         3.386751         1.433803         1.761037
 H         1.760201         1.517500         2.734009
 H         4.037716        -1.210443         2.829912
 H         1.091764        -2.124291         1.415863
 H         0.021950        -0.785306         2.045845
 H         0.429704        -0.463468        -0.594203
 H         2.731225        -1.335579        -1.367469
