19
Iteration:  3858charge 0 multiplicity 1
 C         1.838175         2.217899        -0.592526
 C         1.918783         1.000109         0.374218
 C         2.164111         0.991727         1.843638
 C         2.347993        -0.649031         1.845286
 O         3.271484        -1.186024         2.709775
 C         0.972804        -1.247888         1.434388
 C         1.105880        -0.354081         0.135681
 C         2.618157        -0.411269         0.267625
 O         3.517458        -0.753482        -0.691921
 H         2.834096         2.626158        -0.646953
 H         1.651401         1.836099        -1.580091
 H         1.107234         2.942673        -0.339021
 H         3.171620         1.278103         2.073511
 H         1.493650         1.549078         2.586235
 H         2.941052        -1.283245         3.613753
 H         0.857941        -2.304315         1.279197
 H         0.187979        -0.942776         2.148833
 H         0.541400        -0.488891        -0.767808
 H         3.776859        -1.726017        -0.601070
