19
Iteration:   179
 C         1.787147         2.098699        -0.651895
 C         1.856730         0.963835         0.375583
 C         2.399242         1.005629         1.887937
 C         2.418746        -0.519317         1.804242
 O         3.246453        -1.263505         2.680465
 C         0.948274        -1.013651         1.606705
 C         1.045661        -0.525223         0.223921
 C         2.535928        -0.369649         0.138237
 O         3.458001        -0.876844        -0.758379
 H         1.240353         1.848090        -1.579129
 H         1.261953         2.978324        -0.200077
 H         2.765337         2.415067        -1.010236
 H         3.327842         1.549703         1.868460
 H         1.709801         1.492645         2.635837
 H         3.655674        -0.559858         3.192370
 H         1.048398        -2.078534         1.775153
 H         0.244851        -0.608162         2.287663
 H         0.063189        -0.397462        -0.316378
 H         4.279222        -1.071384        -0.277544
