19
Iteration:  4858
 C         1.885328         2.155020        -0.494985
 C         1.888182         0.956512         0.455403
 C         2.344036         0.976305         1.913068
 C         2.346264        -0.575011         1.744880
 O         3.260082        -1.170323         2.586777
 C         0.907190        -1.127564         1.453568
 C         0.870156        -0.336164         0.145312
 C         2.516598        -0.421061         0.163455
 O         3.604449        -0.867542        -0.520824
 H         0.946080         2.634675        -0.905739
 H         2.362340         3.081273        -0.062385
 H         2.416510         1.870272        -1.430271
 H         3.453138         1.039407         2.115328
 H         1.776980         1.341393         2.734121
 H         4.157355        -1.285095         2.262271
 H         0.877665        -2.243829         1.355290
 H         0.187508        -0.882379         2.188321
 H         0.245318        -0.442647        -0.692159
 H         3.420834        -1.025012        -1.424303
