19
Iteration:  4538charge 0 multiplicity 1
 C         1.800245         2.163304        -0.460486
 C         1.929067         0.873080         0.339780
 C         2.166362         0.887308         1.840567
 C         2.438821        -0.557962         1.824189
 O         3.141365        -1.299099         2.772562
 C         0.988026        -0.973481         1.555025
 C         1.101372        -0.374221         0.147532
 C         2.660452        -0.460466         0.215277
 O         3.518701        -0.740200        -0.897666
 H         0.987399         2.769724        -0.167325
 H         2.659345         2.797226        -0.229211
 H         1.857484         2.199273        -1.534940
 H         3.077184         1.516619         2.143237
 H         1.340482         1.206044         2.549761
 H         3.957882        -0.808724         3.034764
 H         0.862411        -2.071059         1.555908
 H         0.228356        -0.459202         2.234129
 H         0.378998        -0.577709        -0.567775
 H         3.848024        -1.621603        -0.812749
