19
Iteration:  2357
 C         1.837629         2.122643        -0.533140
 C         1.926100         1.020608         0.434021
 C         2.323437         1.060835         1.879931
 C         2.409833        -0.499170         1.775106
 O         3.251725        -1.389047         2.526443
 C         0.961006        -0.977716         1.653195
 C         0.981453        -0.314877         0.174981
 C         2.590419        -0.365505         0.190764
 O         3.425704        -0.975823        -0.723949
 H         0.923665         2.185424        -1.112266
 H         2.065773         3.050041        -0.013231
 H         2.666807         1.936174        -1.253792
 H         3.319155         1.618850         2.044438
 H         1.520836         1.475111         2.604820
 H         3.893357        -0.786717         2.943288
 H         1.125467        -2.105443         1.474231
 H         0.178676        -0.862510         2.462206
 H         0.292028        -0.313203        -0.694984
 H         3.585243        -1.909232        -0.445845
