19
Iteration:   226charge 0 multiplicity 1
 C         1.808437         2.029280        -0.558618
 C         1.911854         0.925505         0.381785
 C         2.260382         1.043484         1.845741
 C         2.400768        -0.489870         1.807208
 O         3.336318        -1.172366         2.646554
 C         0.983936        -1.077557         1.626115
 C         1.016053        -0.432132         0.181793
 C         2.473175        -0.429818         0.123326
 O         3.538429        -0.857677        -0.713793
 H         0.948593         2.140668        -1.242874
 H         1.902016         2.972135        -0.000336
 H         2.696715         2.042516        -1.324885
 H         3.322162         1.494986         2.078351
 H         1.555197         1.544818         2.571664
 H         3.475596        -0.605040         3.454340
 H         0.859702        -2.249788         1.617725
 H         0.135987        -0.666997         2.360942
 H         0.341062        -0.277605        -0.589912
 H         3.290435        -1.727029        -0.987920
