19
Iteration:  4409charge 0 multiplicity 1
 C         1.709378         2.204358        -0.477787
 C         1.852117         0.882270         0.358615
 C         2.356475         0.981269         1.850375
 C         2.382397        -0.571017         1.695755
 O         3.080818        -1.289832         2.778708
 C         0.985027        -1.123573         1.463799
 C         0.962423        -0.446380         0.083961
 C         2.578693        -0.397847         0.132600
 O         3.738955        -0.683538        -0.522963
 H         2.348903         3.041978        -0.027433
 H         2.032738         2.113719        -1.603549
 H         0.639065         2.582623        -0.428937
 H         3.426116         1.310931         1.762050
 H         1.784853         1.398829         2.639551
 H         4.037594        -1.389852         2.717847
 H         1.036212        -2.268230         1.384968
 H         0.254462        -0.799954         2.180953
 H         0.495989        -0.569147        -0.825352
 H         3.678959        -1.177409        -1.414609
