19
Iteration:  1855
 C         1.929650         2.008057        -0.628696
 C         1.829281         0.996118         0.449898
 C         2.550513         1.024626         1.825216
 C         2.469228        -0.487182         1.817039
 O         3.262315        -1.415518         2.526131
 C         0.926232        -0.945930         1.769575
 C         0.945279        -0.166565         0.359891
 C         2.438103        -0.399885         0.224826
 O         3.313468        -0.878153        -0.807148
 H         2.795415         1.668982        -1.251562
 H         1.020204         2.182769        -1.249025
 H         2.331816         2.927522        -0.220245
 H         3.544705         1.581447         1.715590
 H         2.023266         1.397598         2.786966
 H         4.092780        -1.447070         2.071532
 H         1.166751        -2.108027         1.631644
 H         0.087056        -0.664541         2.468334
 H         0.248638        -0.383799        -0.514744
 H         3.177819        -1.787089        -0.998350
