19
Iteration:   553charge 0 multiplicity 1
 C         1.830889         2.108933        -0.558675
 C         1.789769         0.871450         0.328925
 C         2.254342         1.038481         1.747099
 C         2.496724        -0.458518         1.821622
 O         3.372242        -1.249391         2.603587
 C         0.836268        -1.071015         1.600670
 C         1.001334        -0.432183         0.248984
 C         2.513239        -0.444219         0.251311
 O         3.529326        -0.899985        -0.635470
 H         0.894195         2.143072        -0.992022
 H         2.207561         2.922085        -0.042566
 H         2.534140         1.773422        -1.350655
 H         3.137250         1.608973         1.733527
 H         1.463842         1.514067         2.454254
 H         3.971401        -0.552967         3.005457
 H         0.883416        -2.224422         1.685254
 H         0.086798        -0.505376         2.170224
 H         0.510527        -0.536647        -0.705650
 H         3.986001        -0.104070        -0.970206
