19
Iteration:  4693
 C         1.817550         2.086294        -0.574166
 C         1.991045         1.041623         0.462991
 C         2.209320         0.926702         1.894084
 C         2.361539        -0.578877         1.765744
 O         3.266597        -1.173788         2.691610
 C         0.927725        -1.132683         1.408579
 C         1.112275        -0.256324         0.211854
 C         2.607667        -0.327981         0.212323
 O         3.506562        -0.883566        -0.615703
 H         0.787262         2.496361        -0.530779
 H         2.492066         2.979486        -0.517977
 H         1.885970         1.599893        -1.603220
 H         3.147663         1.395164         2.413381
 H         1.398131         1.177132         2.613684
 H         3.789510        -1.744608         2.104031
 H         1.157960        -2.265507         1.168505
 H         0.056415        -1.044029         2.082710
 H         0.441008        -0.175480        -0.673362
 H         2.928320        -1.578634        -1.082932
