19
Iteration:  4491
 C         1.918919         2.144115        -0.595700
 C         1.815300         0.964301         0.406149
 C         2.198922         1.022424         1.942965
 C         2.323870        -0.599075         1.777798
 O         3.258414        -1.212007         2.551271
 C         1.001224        -1.258134         1.474010
 C         1.018289        -0.309550         0.164972
 C         2.507798        -0.337331         0.250716
 O         3.593706        -0.839611        -0.476138
 H         1.717942         3.043188         0.017534
 H         2.838566         2.395159        -1.069884
 H         1.240748         2.228226        -1.457919
 H         3.178102         1.345607         2.099363
 H         1.681154         1.468389         2.805035
 H         4.094419        -1.056831         2.026394
 H         1.120613        -2.194917         1.020769
 H         0.132136        -1.288589         2.189969
 H         0.467973        -0.369046        -0.847519
 H         3.252474        -1.249496        -1.268121
