19
Iteration:    48
 C         1.765321         1.997661        -0.582183
 C         1.870602         0.949415         0.410166
 C         2.358918         1.105222         1.857178
 C         2.495713        -0.538936         1.798498
 O         3.313209        -1.209888         2.631415
 C         0.993350        -1.027221         1.582048
 C         1.038420        -0.295575         0.212723
 C         2.535027        -0.399107         0.197842
 O         3.427927        -0.916947        -0.766299
 H         2.347386         1.680507        -1.476375
 H         0.708793         2.135048        -0.934726
 H         2.043022         2.951182        -0.249843
 H         3.180832         1.772590         1.896976
 H         1.619610         1.422019         2.659194
 H         2.873717        -1.695670         3.367511
 H         0.835767        -2.108418         1.382389
 H         0.178933        -0.902447         2.414765
 H         0.354556        -0.478436        -0.707067
 H         4.089774        -1.223437        -0.163229
