19
Iteration:  4594charge 0 multiplicity 1
 C         1.764364         2.047188        -0.658450
 C         1.888089         1.027430         0.473337
 C         2.416307         0.961302         1.875374
 C         2.441472        -0.629930         1.793053
 O         3.083820        -1.368851         2.752855
 C         0.970435        -1.140229         1.520078
 C         1.036483        -0.215483         0.215891
 C         2.580007        -0.379657         0.175779
 O         3.564346        -0.669881        -0.722065
 H         0.767689         2.041697        -1.056233
 H         1.936715         3.103393        -0.320955
 H         2.340893         1.874255        -1.578632
 H         3.546541         1.243660         1.792452
 H         1.825954         1.453625         2.704115
 H         3.804075        -0.794109         3.024213
 H         0.947912        -2.275238         1.282485
 H         0.228922        -0.996542         2.362098
 H         0.447172        -0.403418        -0.741343
 H         3.387927        -1.652946        -0.940707
