19
Iteration:  2590
 C         1.781143         2.052867        -0.628007
 C         1.989476         0.965453         0.440337
 C         2.241262         0.956048         1.934265
 C         2.338641        -0.569154         1.786255
 O         3.212139        -1.279468         2.497918
 C         0.972011        -1.029319         1.495157
 C         0.964609        -0.270708         0.258580
 C         2.574896        -0.353891         0.202346
 O         3.646990        -0.788774        -0.485764
 H         2.853162         2.267473        -1.065071
 H         1.294307         1.507006        -1.492175
 H         1.276395         3.021449        -0.472590
 H         3.262254         1.341136         2.161071
 H         1.383886         1.347837         2.474760
 H         3.803550        -1.535416         1.767356
 H         0.874393        -2.145943         1.447421
 H         0.195163        -0.729495         2.380483
 H         0.244779        -0.290364        -0.586942
 H         3.498930        -1.682203        -0.909568
