19
Iteration:  4664
 C         1.997960         2.168721        -0.549325
 C         1.827201         1.031410         0.439284
 C         2.214387         0.998468         1.935606
 C         2.336603        -0.559606         1.768977
 O         3.372217        -1.160921         2.601651
 C         0.918445        -1.216689         1.469764
 C         0.931302        -0.296463         0.189769
 C         2.443464        -0.414662         0.205982
 O         3.566615        -0.865610        -0.583332
 H         1.079941         2.541057        -1.068074
 H         2.477570         3.080784        -0.257639
 H         2.519239         1.923836        -1.462700
 H         3.207801         1.392113         2.083044
 H         1.427544         1.237605         2.707280
 H         3.963561        -1.571074         1.965652
 H         1.182918        -2.245681         1.191222
 H         0.069821        -1.255932         2.175652
 H         0.376641        -0.340920        -0.675128
 H         3.412558        -1.844373        -0.708341
