19
Iteration:  3614charge 0 multiplicity 1
 C         1.717706         2.158324        -0.561782
 C         1.952811         0.925724         0.287433
 C         2.309959         1.035718         1.801106
 C         2.385825        -0.610719         1.824770
 O         3.157621        -1.178143         2.920722
 C         0.870866        -1.059527         1.555753
 C         1.071802        -0.347827         0.196631
 C         2.663614        -0.472876         0.132869
 O         3.610887        -0.897719        -0.751547
 H         2.779107         2.601761        -0.775277
 H         1.235773         2.060616        -1.545670
 H         1.213528         2.897750         0.124155
 H         3.389359         1.358023         1.945710
 H         1.557321         1.434579         2.566137
 H         3.928267        -1.654047         2.580848
 H         0.822891        -2.082641         1.295300
 H         0.184277        -0.540123         2.325595
 H         0.403893        -0.564021        -0.595245
 H         3.293577        -0.829983        -1.704557
