19
Iteration:    49
 C         1.768607         1.994370        -0.575971
 C         1.868544         0.955202         0.414010
 C         2.361439         1.102917         1.847543
 C         2.499714        -0.544437         1.786760
 O         3.311382        -1.204172         2.632972
 C         0.991319        -1.033390         1.582221
 C         1.029781        -0.301971         0.216606
 C         2.528371        -0.389732         0.197137
 O         3.430078        -0.918819        -0.762560
 H         2.342661         1.696336        -1.478432
 H         0.727424         2.157505        -0.959741
 H         2.041803         2.994317        -0.251772
 H         3.229658         1.780901         1.889796
 H         1.641911         1.425436         2.654347
 H         2.853604        -1.701604         3.360177
 H         0.812575        -2.131955         1.398813
 H         0.177312        -0.925990         2.425307
 H         0.392818        -0.487263        -0.695380
 H         4.121573        -1.214476        -0.142675
