19
Iteration:  1759charge 0 multiplicity 1
 C         1.847735         2.203156        -0.594615
 C         2.077369         1.000233         0.383915
 C         2.496777         1.024956         1.876551
 C         2.444459        -0.513830         1.806132
 O         3.272061        -1.363967         2.631233
 C         1.070513        -0.967904         1.695850
 C         1.014422        -0.223454         0.378155
 C         2.497134        -0.403359         0.199020
 O         3.077406        -1.071424        -0.929498
 H         2.522652         2.924483        -0.032897
 H         2.161956         2.050713        -1.688181
 H         0.794897         2.602154        -0.532423
 H         3.511745         1.354647         1.956026
 H         1.854159         1.506093         2.685483
 H         4.015590        -0.779738         2.720812
 H         0.964044        -2.035085         1.480626
 H         0.479714        -0.658580         2.520559
 H         0.466585        -0.364365        -0.600856
 H         3.018261        -2.062072        -0.928411
