19
Iteration:  4656charge 0 multiplicity 1
 C         2.011395         2.168138        -0.536705
 C         1.780250         1.017496         0.427450
 C         2.186040         0.969046         1.861066
 C         2.338650        -0.531971         1.856905
 O         3.386749        -1.207753         2.569254
 C         0.901797        -1.143272         1.511771
 C         0.987915        -0.410127         0.186111
 C         2.453754        -0.339916         0.224336
 O         3.570943        -0.852087        -0.616068
 H         1.063290         2.548188        -0.963337
 H         2.497476         3.025898         0.006047
 H         2.768077         1.859258        -1.328212
 H         3.062364         1.486453         2.026877
 H         1.409717         1.300239         2.542825
 H         3.958789        -1.590102         1.904918
 H         1.054549        -2.135595         1.295730
 H        -0.051313        -0.967839         2.037967
 H         0.277171        -0.433907        -0.649247
 H         3.492043        -1.863507        -0.733299
