19
Iteration:  1761charge 0 multiplicity 1
 C         1.850562         2.219486        -0.609012
 C         2.062004         1.010392         0.375599
 C         2.504928         1.012821         1.873297
 C         2.441735        -0.521886         1.807101
 O         3.257999        -1.363253         2.618660
 C         1.089253        -0.964854         1.689848
 C         1.023723        -0.224678         0.374340
 C         2.494956        -0.415207         0.210014
 O         3.075852        -1.063346        -0.908806
 H         2.479264         2.947694        -0.086044
 H         2.115763         2.026937        -1.659339
 H         0.809067         2.592809        -0.454665
 H         3.590364         1.355885         1.951646
 H         1.898044         1.466268         2.727821
 H         4.035299        -0.768011         2.751024
 H         1.014223        -1.999798         1.471036
 H         0.434605        -0.664630         2.509914
 H         0.430849        -0.435976        -0.594231
 H         3.006577        -2.078092        -0.881451
