19
Iteration:  3753charge 0 multiplicity 1
 C         1.808625         2.008026        -0.766169
 C         1.873263         0.965755         0.429350
 C         2.252606         0.952037         1.989559
 C         2.392864        -0.598303         1.799703
 O         3.143860        -1.349621         2.605190
 C         0.947121        -1.038206         1.556054
 C         1.020195        -0.217133         0.189355
 C         2.556496        -0.321337         0.240993
 O         3.668760        -0.747687        -0.599048
 H         2.515332         2.859722        -0.704657
 H         1.928995         1.444035        -1.753054
 H         0.771890         2.449953        -0.825281
 H         3.273627         1.469565         2.131002
 H         1.567320         1.488642         2.706310
 H         4.087559        -1.186781         2.490025
 H         1.025737        -2.144630         1.320187
 H         0.313523        -0.707152         2.372165
 H         0.436130        -0.421738        -0.698477
 H         3.634459        -1.683323        -0.641189
