19
Iteration:   732charge 0 multiplicity 1
 C         1.849156         2.027097        -0.694137
 C         1.829741         0.975327         0.382479
 C         2.275480         1.086184         1.808344
 C         2.465858        -0.588595         1.793159
 O         3.376298        -1.328513         2.541758
 C         0.976857        -0.971248         1.667585
 C         0.976174        -0.313202         0.301528
 C         2.523833        -0.353803         0.240583
 O         3.405099        -0.938984        -0.528132
 H         2.839399         2.509040        -0.755027
 H         1.798269         1.433523        -1.590466
 H         1.120848         2.804733        -0.692417
 H         3.282396         1.648638         1.883954
 H         1.564238         1.506782         2.590508
 H         4.120726        -1.136864         1.938836
 H         0.939058        -2.112720         1.612393
 H         0.318205        -0.776066         2.490843
 H         0.146136        -0.252526        -0.487965
 H         3.373612        -0.676512        -1.435699
