19
Iteration:  3429
 C         1.751373         2.156842        -0.588930
 C         2.032352         0.979697         0.361541
 C         2.310816         0.992119         1.892602
 C         2.405565        -0.535893         1.863722
 O         3.146307        -1.176367         2.883543
 C         0.983338        -1.156398         1.489859
 C         1.122146        -0.417910         0.115866
 C         2.663328        -0.378098         0.186305
 O         3.314675        -0.982522        -0.816957
 H         2.636140         2.636305        -1.130697
 H         1.117818         1.934521        -1.443911
 H         1.419162         2.932075         0.117852
 H         3.331019         1.411592         2.072537
 H         1.582289         1.478824         2.563553
 H         4.014098        -0.744893         2.866507
 H         1.063736        -2.225338         1.453761
 H         0.124615        -0.691404         2.053544
 H         0.620989        -0.299475        -0.853162
 H         4.248475        -0.569913        -0.857738
