19
Iteration:  3193charge 0 multiplicity 1
 C         1.841730         2.057934        -0.745322
 C         1.973964         0.954787         0.426534
 C         2.223895         0.962919         1.989152
 C         2.342082        -0.554441         1.852215
 O         3.410223        -1.295450         2.595716
 C         0.833672        -0.955384         1.543771
 C         1.054462        -0.281256         0.151108
 C         2.528418        -0.374464         0.262516
 O         3.549933        -0.755634        -0.625511
 H         2.638227         2.069189        -1.506403
 H         0.991626         1.569704        -1.269277
 H         1.655781         3.109595        -0.451977
 H         3.180106         1.425234         2.148135
 H         1.445139         1.216340         2.686459
 H         3.210905        -2.252808         2.391642
 H         0.766586        -2.064941         1.290424
 H         0.026944        -0.629126         2.252903
 H         0.308090        -0.635268        -0.577725
 H         3.620225        -1.679446        -0.486812
