19
Iteration:   674
 C         1.703452         2.102931        -0.618454
 C         1.859281         0.861049         0.357594
 C         2.415108         1.121075         1.788795
 C         2.437070        -0.580892         1.783238
 O         3.309249        -1.335130         2.756460
 C         0.880148        -0.884416         1.647931
 C         1.021464        -0.426069         0.231161
 C         2.535018        -0.472907         0.174243
 O         3.518056        -0.921599        -0.729700
 H         2.432798         2.053680        -1.424574
 H         0.673862         2.123395        -0.919976
 H         1.890738         3.025248         0.042331
 H         3.407945         1.510152         1.628469
 H         1.784568         1.681280         2.612872
 H         4.074106        -0.790593         2.988493
 H         0.807981        -2.007556         1.803613
 H         0.191890        -0.394933         2.232124
 H         0.340165        -0.544866        -0.608676
 H         3.712985        -0.198639        -1.399103
