19
Iteration:  3207charge 0 multiplicity 1
 C         1.792203         1.997665        -0.677978
 C         1.946178         0.969174         0.392946
 C         2.344703         0.935073         1.934239
 C         2.356064        -0.607438         1.849457
 O         3.255043        -1.194238         2.691886
 C         0.862308        -0.994639         1.509530
 C         1.071896        -0.339692         0.206638
 C         2.609043        -0.399618         0.267426
 O         3.504477        -0.737311        -0.736653
 H         2.743195         2.140462        -1.151269
 H         0.921458         1.989718        -1.350379
 H         1.622601         2.978514        -0.173050
 H         3.389446         1.218113         2.182389
 H         1.618122         1.482562         2.639832
 H         3.396633        -2.099192         2.416923
 H         0.799750        -2.052482         1.487414
 H        -0.050457        -0.524164         2.133818
 H         0.569290        -0.226539        -0.778243
 H         3.823706        -1.702059        -0.719622
