19
Iteration:  2072
 C         1.965235         2.116565        -0.555413
 C         1.995092         0.966313         0.386949
 C         2.442287         0.938698         1.813705
 C         2.432064        -0.615649         1.804395
 O         3.374194        -1.284562         2.645239
 C         0.850661        -0.991714         1.671610
 C         0.964577        -0.296385         0.291097
 C         2.423541        -0.458733         0.152371
 O         3.241567        -0.841423        -0.805559
 H         1.783294         3.113522        -0.042223
 H         2.994896         2.424581        -0.994860
 H         1.255239         1.997458        -1.485217
 H         3.516949         1.328875         1.892645
 H         1.886285         1.527075         2.494090
 H         3.945752        -0.541661         3.015444
 H         0.768799        -2.088602         1.595683
 H         0.142012        -0.571064         2.372353
 H         0.306782        -0.227823        -0.541186
 H         3.430598        -1.845626        -0.767245
