19
Iteration:  3731charge 0 multiplicity 1
 C         1.881506         2.076523        -0.665378
 C         1.956391         0.909329         0.319198
 C         2.231878         1.059053         1.830847
 C         2.378431        -0.525574         1.802770
 O         3.257592        -1.474522         2.509612
 C         0.855201        -0.992322         1.576182
 C         0.995788        -0.452158         0.237703
 C         2.512296        -0.385655         0.260014
 O         3.613643        -0.634520        -0.526479
 H         2.533068         2.923829        -0.411958
 H         2.299659         1.664411        -1.624580
 H         0.849035         2.369143        -0.920794
 H         3.119641         1.773258         1.958568
 H         1.528467         1.427104         2.628242
 H         3.847537        -0.935753         3.095828
 H         0.822293        -2.109058         1.702572
 H         0.239856        -0.420385         2.239048
 H         0.218989        -0.540862        -0.473473
 H         3.638420        -1.662603        -0.507586
