19
Iteration:  2122
 C         1.817001         2.124225        -0.519935
 C         2.025969         0.964552         0.353646
 C         2.503548         0.999592         1.818624
 C         2.454732        -0.553469         1.888940
 O         3.180322        -1.326316         2.752779
 C         1.019784        -0.947726         1.611469
 C         1.035568        -0.354895         0.246763
 C         2.573712        -0.401719         0.126618
 O         3.267077        -0.918651        -0.901245
 H         2.414510         2.941002        -0.156617
 H         2.086189         2.013450        -1.552884
 H         0.839874         2.496456        -0.558479
 H         3.488235         1.450398         1.837246
 H         1.928120         1.597692         2.669915
 H         3.646142        -0.839600         3.443748
 H         0.891114        -2.024317         1.547072
 H         0.281634        -0.595861         2.406064
 H         0.150313        -0.564031        -0.450827
 H         2.724596        -1.512998        -1.374110
