19
Iteration:  1369charge 0 multiplicity 1
 C         1.864597         2.221103        -0.419193
 C         1.986581         0.904682         0.333271
 C         2.490407         0.917696         1.777916
 C         2.476393        -0.546365         1.742130
 O         3.250961        -1.128422         2.694286
 C         0.981784        -0.943749         1.752209
 C         0.965040        -0.338438         0.334182
 C         2.479122        -0.436905         0.013101
 O         3.293225        -1.068305        -0.907055
 H         2.663392         2.369941        -1.170655
 H         0.862531         2.023111        -0.841045
 H         1.900525         2.942453         0.438159
 H         3.540044         1.300208         1.835150
 H         1.804129         1.427923         2.485656
 H         3.988549        -0.580708         2.924149
 H         0.708703        -1.987015         1.880098
 H         0.354404        -0.276625         2.503882
 H         0.104661        -0.309217        -0.411968
 H         3.208500        -2.087621        -0.900839
