19
Iteration:  3107charge 0 multiplicity 1
 C         1.828923         2.067579        -0.522391
 C         1.948895         0.928586         0.423193
 C         2.321491         0.921965         1.939162
 C         2.387907        -0.597074         1.765716
 O         3.175079        -1.215749         2.785643
 C         0.936930        -0.996071         1.554290
 C         1.036435        -0.273768         0.157547
 C         2.554027        -0.527405         0.138943
 O         3.544863        -0.780218        -0.901754
 H         2.731495         2.658661        -0.591184
 H         1.683862         1.772312        -1.605855
 H         1.008482         2.730999        -0.171671
 H         3.201742         1.469934         2.327242
 H         1.517014         1.329524         2.690398
 H         3.811670        -0.491856         2.955732
 H         0.781896        -2.060306         1.699623
 H         0.184054        -0.638469         2.360457
 H         0.397176        -0.367670        -0.725315
 H         3.760734        -1.738188        -0.811723
