19
Iteration:  2772charge 0 multiplicity 1
 C         1.877047         2.104958        -0.563236
 C         1.902354         0.971049         0.418596
 C         2.390074         1.057122         1.857142
 C         2.367694        -0.601495         1.784340
 O         3.336184        -1.253272         2.568858
 C         0.808693        -1.063812         1.522646
 C         0.988704        -0.447674         0.164613
 C         2.495819        -0.358726         0.207405
 O         3.508498        -0.774833        -0.606399
 H         2.268149         3.013552        -0.280477
 H         2.418832         1.706493        -1.398783
 H         0.890693         2.278551        -0.927678
 H         3.450524         1.328748         1.736996
 H         1.958593         1.663516         2.702087
 H         3.040614        -2.171159         2.723777
 H         0.837176        -2.223491         1.539470
 H         0.017127        -0.639072         2.155388
 H         0.261699        -0.369721        -0.691115
 H         4.149899        -1.052115         0.094863
