19
Iteration:  1448charge 0 multiplicity 1
 C         1.868059         1.961626        -0.650142
 C         1.925291         0.962007         0.431841
 C         2.511531         1.090118         1.803642
 C         2.499320        -0.583499         1.775622
 O         3.342356        -1.403485         2.517396
 C         0.976361        -0.866462         1.777154
 C         0.835928        -0.182294         0.419035
 C         2.402616        -0.402528         0.212313
 O         3.373391        -0.909662        -0.759232
 H         2.338498         2.889415        -0.213903
 H         2.522565         1.670287        -1.531221
 H         0.833392         2.052531        -1.108758
 H         3.471421         1.531877         1.792834
 H         1.805387         1.584303         2.597141
 H         4.219696        -1.239239         2.169915
 H         0.737728        -1.952203         1.655563
 H         0.263992        -0.523228         2.643477
 H         0.042287        -0.202019        -0.253222
 H         2.856175        -1.535733        -1.358258
