19
Iteration:  1726
 C         1.988981         2.071552        -0.528990
 C         1.962446         0.919828         0.391791
 C         2.463826         0.890345         1.891156
 C         2.485379        -0.583332         1.809546
 O         3.362287        -1.217884         2.716832
 C         0.993030        -0.835194         1.730098
 C         0.935532        -0.253602         0.348939
 C         2.408920        -0.528586         0.122091
 O         3.145742        -0.922938        -0.991148
 H         2.366506         3.008364         0.012689
 H         2.770517         2.171201        -1.362618
 H         1.054284         2.438711        -1.021953
 H         3.455968         1.326463         1.928500
 H         1.795958         1.363809         2.730137
 H         4.240470        -0.950180         2.321470
 H         0.725957        -1.906493         1.751882
 H         0.484806        -0.338637         2.520903
 H         0.165800        -0.319902        -0.438313
 H         2.718342        -1.702246        -1.475939
