19
Iteration:  1643
 C         1.820185         2.053161        -0.682414
 C         2.053891         0.964405         0.406364
 C         2.589056         1.000339         1.971350
 C         2.451273        -0.549826         1.850914
 O         3.372514        -1.450036         2.431009
 C         0.838354        -0.802293         1.816260
 C         0.927169        -0.190868         0.323553
 C         2.427696        -0.428663         0.211594
 O         3.230615        -0.945245        -0.853901
 H         0.777755         2.356304        -0.550120
 H         2.604052         2.801185        -0.688912
 H         1.891417         1.611550        -1.707919
 H         3.642399         1.454886         2.040740
 H         2.136166         1.365659         2.841478
 H         4.156704        -0.927600         2.407484
 H         0.619822        -1.887781         1.877117
 H         0.412140        -0.173671         2.769964
 H         0.178530         0.086821        -0.527468
 H         3.404984        -1.909437        -0.721952
