19
Iteration:  2158charge 0 multiplicity 1
 C         1.775110         2.095723        -0.552189
 C         1.973122         0.910333         0.411031
 C         2.463304         0.943186         1.879035
 C         2.488035        -0.578483         1.748953
 O         3.161880        -1.255855         2.676436
 C         0.949724        -0.934722         1.582110
 C         1.014384        -0.154760         0.348223
 C         2.560958        -0.462001         0.181813
 O         3.396385        -0.907209        -0.830703
 H         2.751123         2.309187        -0.904134
 H         1.230572         1.648644        -1.401489
 H         1.213866         2.932340        -0.036820
 H         3.479267         1.346428         1.764135
 H         1.730259         1.401341         2.629582
 H         4.084317        -1.228541         2.353462
 H         0.717586        -1.965546         1.274509
 H         0.333125        -0.548683         2.466984
 H         0.254005        -0.263645        -0.358033
 H         3.347661        -1.834953        -0.753074
