19
Iteration:  2658
 C         1.847997         2.160481        -0.399913
 C         1.864617         0.936679         0.344748
 C         2.166100         1.030379         1.924961
 C         2.420886        -0.507180         1.777889
 O         3.204931        -1.097792         2.721243
 C         0.990466        -1.146233         1.519775
 C         0.991554        -0.314834         0.189108
 C         2.605453        -0.442454         0.140416
 O         3.678109        -0.979402        -0.782882
 H         2.814621         2.137284        -0.963249
 H         1.063884         2.025321        -1.173833
 H         1.763499         3.130326         0.115843
 H         3.144546         1.442486         2.243632
 H         1.293523         1.323144         2.513604
 H         3.217567        -2.045939         2.591711
 H         0.675958        -2.151544         1.391890
 H         0.284445        -0.604116         2.343005
 H         0.450359        -0.618856        -0.658769
 H         3.300547        -0.983931        -1.623689
