19
Iteration:  4483charge 0 multiplicity 1
 C         1.886355         2.101745        -0.626004
 C         1.894176         1.062761         0.451925
 C         2.171647         0.993570         1.927927
 C         2.344531        -0.555123         1.746691
 O         3.306578        -1.273855         2.526723
 C         1.009366        -1.263916         1.457737
 C         0.979789        -0.273376         0.129587
 C         2.494853        -0.291934         0.261670
 O         3.568381        -0.843811        -0.406073
 H         1.765630         3.002794        -0.118353
 H         2.838113         2.201661        -1.142693
 H         1.062551         1.976766        -1.328707
 H         3.172664         1.490756         2.114852
 H         1.343816         1.315225         2.659642
 H         4.250895        -1.301531         2.262491
 H         1.048222        -2.241797         1.007062
 H         0.140170        -1.176065         2.187159
 H         0.450099        -0.443457        -0.765440
 H         3.332401        -1.205645        -1.232344
