19
Iteration:   232
 C         1.826923         2.089435        -0.604897
 C         1.902281         0.981193         0.396826
 C         2.276412         1.012698         1.886483
 C         2.400628        -0.490346         1.804747
 O         3.309635        -1.159340         2.629986
 C         0.977114        -1.152296         1.618996
 C         1.032803        -0.431565         0.212339
 C         2.479885        -0.392640         0.106808
 O         3.525970        -0.885159        -0.679012
 H         0.903957         1.977408        -1.194895
 H         1.950934         3.069414        -0.134668
 H         2.626921         1.905667        -1.247571
 H         3.203539         1.470973         1.926043
 H         1.618306         1.615402         2.511314
 H         3.481001        -0.649296         3.431105
 H         0.940277        -2.171495         1.744483
 H         0.364480        -0.722248         2.357361
 H         0.346871        -0.493009        -0.719639
 H         3.218675        -1.671731        -1.191762
