19
Iteration:  2893
 C         1.824641         2.205942        -0.431226
 C         1.947828         0.964997         0.266278
 C         2.283531         0.979130         1.735161
 C         2.421535        -0.550314         1.842542
 O         3.128967        -1.213609         2.867970
 C         1.065356        -1.098763         1.551973
 C         1.102964        -0.411727         0.203891
 C         2.597490        -0.349444         0.130401
 O         3.395121        -0.920062        -0.847739
 H         2.797733         2.499130        -0.821913
 H         1.185854         2.199831        -1.282784
 H         1.599806         2.972269         0.272420
 H         3.303929         1.382910         1.825043
 H         1.635167         1.483954         2.437902
 H         2.578789        -2.004333         3.110403
 H         1.133120        -2.214102         1.434275
 H         0.287815        -0.892990         2.281585
 H         0.621020        -0.545513        -0.734098
 H         4.318118        -0.604365        -0.683270
