19
Iteration:  1099
 C         1.965122         2.002368        -0.781482
 C         1.969299         0.972084         0.392227
 C         2.439139         1.005130         1.898585
 C         2.448097        -0.538922         1.786597
 O         3.417980        -1.333414         2.586074
 C         0.947313        -0.891527         1.749245
 C         0.932953        -0.310322         0.380895
 C         2.346594        -0.411112         0.173009
 O         3.195140        -0.840406        -0.750863
 H         2.574981         1.523873        -1.541820
 H         0.947245         2.323778        -1.031357
 H         2.521850         2.877994        -0.332349
 H         3.415482         1.508459         2.040106
 H         1.819232         1.371557         2.614432
 H         4.303846        -1.075294         2.244078
 H         0.880443        -1.991213         1.620571
 H         0.417756        -0.537611         2.636210
 H         0.134020        -0.352457        -0.380809
 H         3.354842        -1.782173        -0.668120
