19
Iteration:  1754
 C         1.857479         2.159501        -0.539501
 C         2.088345         0.978574         0.395214
 C         2.459723         1.051146         1.880113
 C         2.483858        -0.519251         1.809674
 O         3.301133        -1.352741         2.657378
 C         0.996484        -0.978670         1.706634
 C         1.000398        -0.212271         0.370775
 C         2.509219        -0.395205         0.151376
 O         3.087309        -1.073919        -0.978926
 H         2.528075         2.889948        -0.102259
 H         2.254155         2.095103        -1.527822
 H         0.866340         2.563555        -0.723935
 H         3.518246         1.443972         2.006635
 H         1.758537         1.584748         2.479925
 H         4.160960        -0.820369         2.727924
 H         0.867466        -2.083947         1.564527
 H         0.424803        -0.631454         2.646162
 H         0.449202        -0.162882        -0.528858
 H         2.973586        -2.050332        -0.940855
