19
Iteration:  4711charge 0 multiplicity 1
 C         1.710780         2.127270        -0.549202
 C         1.924277         0.998742         0.399416
 C         2.174663         1.053114         2.057196
 C         2.413407        -0.542109         1.898955
 O         3.244712        -1.283896         2.725691
 C         0.954433        -1.022894         1.466049
 C         1.155103        -0.377529         0.081652
 C         2.645293        -0.390181         0.232025
 O         3.595394        -0.907934        -0.774227
 H         0.907438         2.842724        -0.361524
 H         2.609144         2.777875        -0.595961
 H         1.511070         1.970791        -1.633788
 H         3.040204         1.638999         2.134710
 H         1.348411         1.441830         2.598996
 H         3.575418        -2.105832         2.315860
 H         0.730929        -2.014653         1.344831
 H         0.149003        -0.575160         2.066970
 H         0.665616        -0.527239        -0.962418
 H         3.070241        -1.519506        -1.397316
