19
Iteration:  3307charge 0 multiplicity 1
 C         1.886424         2.071787        -0.661310
 C         2.015320         1.012022         0.368032
 C         2.260788         0.926523         1.917533
 C         2.407943        -0.580130         1.866826
 O         3.248573        -1.224724         2.776771
 C         0.937181        -1.080397         1.539376
 C         1.014915        -0.244283         0.277424
 C         2.593824        -0.295434         0.165479
 O         3.449914        -0.842602        -0.812382
 H         2.243973         3.037115        -0.295216
 H         2.327105         1.760274        -1.602777
 H         0.846574         2.361383        -0.943948
 H         3.152690         1.462602         2.320487
 H         1.336176         1.216501         2.478025
 H         3.289139        -2.157867         2.446635
 H         0.999235        -2.098632         1.312325
 H         0.090671        -0.806446         2.289833
 H         0.531237        -0.566835        -0.619911
 H         3.388996        -1.821734        -0.736972
