19
Iteration:  2720
 C         1.812391         2.069883        -0.549893
 C         1.917776         0.909671         0.386790
 C         2.279234         1.036933         1.911443
 C         2.417426        -0.525115         1.863859
 O         3.174531        -1.204924         2.800475
 C         1.032291        -1.067388         1.496269
 C         1.074425        -0.378948         0.145265
 C         2.588037        -0.345274         0.145955
 O         3.542867        -0.856182        -0.787108
 H         2.718147         2.689517        -0.208663
 H         1.876366         1.831996        -1.631518
 H         0.923976         2.686247        -0.429005
 H         3.231488         1.529080         2.204118
 H         1.513451         1.323809         2.655297
 H         3.111841        -2.069870         2.375245
 H         1.011607        -2.185092         1.396552
 H         0.315491        -0.678443         2.171901
 H         0.239283        -0.172392        -0.531806
 H         2.902195        -1.352582        -1.253188
