19
Iteration:  4374charge 0 multiplicity 1
 C         1.774482         2.141949        -0.489393
 C         1.982449         0.940489         0.406476
 C         2.172884         0.986214         1.967965
 C         2.408117        -0.596077         1.838999
 O         3.104896        -1.280567         2.822424
 C         0.985575        -1.165880         1.395958
 C         1.132277        -0.418430         0.023901
 C         2.638401        -0.362875         0.163977
 O         3.612500        -0.683513        -0.811408
 H         2.707034         2.682729        -0.656548
 H         1.195176         1.816903        -1.437459
 H         1.066179         2.718326         0.177808
 H         3.107705         1.507783         2.328189
 H         1.340660         1.351364         2.608367
 H         3.614616        -0.567949         3.240543
 H         0.978745        -2.258200         1.360247
 H         0.018504        -0.917907         1.930410
 H         0.457862        -0.495359        -0.878218
 H         3.683824        -1.697688        -0.793112
