19
Iteration:  3856
 C         1.836096         2.224976        -0.580026
 C         1.925224         0.988355         0.385421
 C         2.168238         0.973229         1.830364
 C         2.335336        -0.648622         1.841342
 O         3.265187        -1.163873         2.709250
 C         0.985853        -1.247013         1.430000
 C         1.102393        -0.364618         0.138348
 C         2.624332        -0.410125         0.266130
 O         3.507527        -0.761755        -0.689854
 H         2.861725         2.552703        -0.659204
 H         1.661407         1.936772        -1.579519
 H         1.099783         2.945195        -0.314938
 H         3.191006         1.353835         2.054036
 H         1.481336         1.573218         2.582193
 H         2.941823        -1.321306         3.624108
 H         0.886402        -2.272139         1.273691
 H         0.138409        -0.953313         2.174743
 H         0.597603        -0.435391        -0.775590
 H         3.823493        -1.740229        -0.676358
