19
Iteration:  1757
 C         1.847672         2.185936        -0.575394
 C         2.086809         0.990524         0.390175
 C         2.484767         1.037236         1.880286
 C         2.456001        -0.511031         1.806408
 O         3.284137        -1.362369         2.642621
 C         1.044851        -0.971178         1.700303
 C         1.005142        -0.220589         0.375264
 C         2.501093        -0.395532         0.183094
 O         3.080205        -1.078210        -0.949570
 H         2.547157         2.905372        -0.028755
 H         2.200195         2.076717        -1.659820
 H         0.811692         2.595676        -0.616961
 H         3.468192         1.369685         1.967573
 H         1.824670         1.535421         2.604781
 H         4.050542        -0.787053         2.711257
 H         0.918313        -2.080261         1.501448
 H         0.479622        -0.646280         2.567698
 H         0.499446        -0.282659        -0.556514
 H         3.016721        -2.013195        -0.952414
