19
Iteration:  3880charge 0 multiplicity 1
 C         1.800287         2.008762        -0.664902
 C         1.885236         0.970393         0.425821
 C         2.197805         0.962129         1.962778
 C         2.397622        -0.530338         1.792116
 O         3.245596        -1.365021         2.617304
 C         0.956779        -1.023740         1.480237
 C         1.029511        -0.367315         0.152568
 C         2.607601        -0.322617         0.186046
 O         3.626573        -0.693132        -0.619532
 H         2.671447         2.607357        -0.558854
 H         1.956557         1.565105        -1.639448
 H         0.910021         2.581688        -0.629165
 H         2.973435         1.673953         2.150149
 H         1.316701         1.233145         2.678453
 H         3.182688        -1.123255         3.575224
 H         1.022716        -2.120774         1.440583
 H         0.083669        -0.862145         2.143840
 H         0.442632        -0.341671        -0.781320
 H         3.767389        -1.628360        -0.608163
