19
Iteration:  3552charge 0 multiplicity 1
 C         1.766803         2.082852        -0.684264
 C         1.932149         1.022160         0.380999
 C         2.154851         1.120415         1.843035
 C         2.359508        -0.574728         1.789609
 O         3.309818        -1.420405         2.426094
 C         0.926993        -0.950026         1.610075
 C         1.117269        -0.351141         0.248936
 C         2.596948        -0.356811         0.307761
 O         3.486164        -0.980518        -0.471324
 H         2.730676         2.563433        -0.795984
 H         1.836302         1.531287        -1.631638
 H         0.844518         2.677159        -0.772971
 H         3.115609         1.574690         2.084582
 H         1.447042         1.642025         2.460673
 H         4.147061        -0.948101         2.452039
 H         0.807693        -2.047661         1.536427
 H         0.165018        -0.616760         2.306152
 H         0.382200        -0.494560        -0.597322
 H         4.302626        -0.376096        -0.512350
