19
Iteration:  3608charge 0 multiplicity 1
 C         1.738789         2.150154        -0.537784
 C         1.984946         0.887817         0.253263
 C         2.314714         0.992952         1.777682
 C         2.398109        -0.638819         1.810120
 O         3.143783        -1.162803         2.883257
 C         0.873557        -1.058553         1.606984
 C         1.044998        -0.333019         0.223199
 C         2.583149        -0.415449         0.120298
 O         3.650889        -0.898035        -0.705170
 H         2.666625         2.657523        -0.681393
 H         1.191728         2.063545        -1.490060
 H         1.248150         2.882487         0.110827
 H         3.313283         1.377998         1.741324
 H         1.617668         1.567948         2.356836
 H         3.948960        -1.584722         2.480757
 H         0.785246        -2.195303         1.477064
 H         0.167232        -0.691611         2.308595
 H         0.442147        -0.387302        -0.764649
 H         3.420618        -0.725997        -1.666164
