19
Iteration:  3861
 C         1.847288         2.193497        -0.607729
 C         1.906700         1.008249         0.358370
 C         2.156586         1.014199         1.871806
 C         2.362706        -0.640057         1.843336
 O         3.283759        -1.220956         2.709373
 C         0.951189        -1.234724         1.443845
 C         1.111901        -0.344496         0.135939
 C         2.603105        -0.402563         0.264932
 O         3.538123        -0.746420        -0.695559
 H         2.819551         2.770119        -0.624049
 H         1.618196         1.688960        -1.617799
 H         1.071205         2.975935        -0.344425
 H         3.203949         1.211945         2.111208
 H         1.509888         1.470858         2.557099
 H         2.912972        -1.220323         3.609798
 H         0.852690        -2.378762         1.256958
 H         0.223809        -0.926785         2.129223
 H         0.459293        -0.569308        -0.775601
 H         3.683754        -1.649130        -0.497780
