19
Iteration:  1727
 C         1.993834         2.074933        -0.524501
 C         1.964242         0.921183         0.398614
 C         2.457641         0.890845         1.885086
 C         2.482624        -0.580758         1.812378
 O         3.363936        -1.220983         2.720157
 C         0.999505        -0.832012         1.722627
 C         0.942114        -0.254466         0.357501
 C         2.409201        -0.525226         0.120615
 O         3.143994        -0.931980        -0.996892
 H         2.363122         3.000581         0.008038
 H         2.736795         2.164228        -1.370106
 H         1.033764         2.403258        -1.002334
 H         3.457921         1.380664         1.924942
 H         1.778389         1.325548         2.738878
 H         4.236788        -0.934785         2.301098
 H         0.719432        -1.883350         1.711910
 H         0.445720        -0.321554         2.502137
 H         0.128847        -0.305660        -0.432476
 H         2.747767        -1.705841        -1.468560
