19
Iteration:  3272charge 0 multiplicity 1
 C         1.876925         2.127789        -0.452658
 C         1.995183         0.882561         0.402269
 C         2.314537         0.900623         1.896340
 C         2.380677        -0.529991         1.867918
 O         3.165161        -1.048916         2.935776
 C         1.007311        -1.083379         1.462645
 C         1.155883        -0.425946         0.150692
 C         2.646918        -0.377211         0.111447
 O         3.372388        -0.828308        -1.019950
 H         2.707849         2.773848        -0.198226
 H         2.102481         1.979455        -1.527322
 H         0.898769         2.546979        -0.173313
 H         3.244811         1.383260         2.100068
 H         1.532417         1.315797         2.528196
 H         2.599586        -1.692070         3.438272
 H         1.011397        -2.144157         1.509184
 H         0.122565        -0.771404         2.089077
 H         0.585825        -0.641242        -0.742892
 H         2.844162        -1.620444        -1.190130
