19
Iteration:  4224
 C         1.705133         2.156231        -0.570856
 C         1.961966         0.960425         0.390457
 C         2.272602         0.999964         1.946327
 C         2.349547        -0.566960         1.869919
 O         3.097196        -1.240458         2.941537
 C         0.982409        -1.277338         1.311410
 C         1.125567        -0.361038         0.088323
 C         2.651861        -0.324477         0.153707
 O         3.618057        -0.717283        -0.707183
 H         2.632612         2.691218        -0.796103
 H         1.195923         1.935845        -1.492930
 H         1.075453         2.741061         0.025717
 H         3.324824         1.458477         1.995105
 H         1.627391         1.555409         2.698808
 H         3.898100        -1.570173         2.502282
 H         1.184276        -2.431692         1.083036
 H         0.048067        -1.089153         1.804598
 H         0.472840        -0.477592        -0.877933
 H         3.282256        -1.505875        -1.194295
