19
Iteration:  2540charge 0 multiplicity 1
 C         1.933216         2.099595        -0.493304
 C         1.848645         0.911532         0.404467
 C         2.283006         0.987767         1.878269
 C         2.432645        -0.500989         1.754660
 O         3.130202        -1.289020         2.645428
 C         0.966689        -1.042885         1.631010
 C         1.056071        -0.408609         0.175980
 C         2.572605        -0.396692         0.159205
 O         3.501357        -0.771072        -0.779311
 H         2.474364         2.883696        -0.074557
 H         2.278580         1.868346        -1.487336
 H         0.888625         2.441240        -0.634673
 H         3.312050         1.377881         1.934914
 H         1.656802         1.359738         2.712418
 H         3.754845        -0.641473         3.080037
 H         0.913247        -2.093652         1.516716
 H         0.295762        -0.668888         2.332309
 H         0.450644        -0.580987        -0.727851
 H         3.523486        -1.763397        -0.883599
