19
Iteration:  3090
 C         1.785626         2.085537        -0.533161
 C         2.052648         0.922214         0.415405
 C         2.291200         0.972801         1.871435
 C         2.455623        -0.549735         1.855788
 O         3.038209        -1.247042         2.868360
 C         1.020987        -1.033392         1.546666
 C         1.086207        -0.365914         0.247336
 C         2.640480        -0.386708         0.054307
 O         3.475654        -0.793327        -0.916174
 H         2.528446         2.913497        -0.373851
 H         1.812291         1.794519        -1.584988
 H         0.753382         2.462868        -0.502625
 H         3.235672         1.474342         2.125411
 H         1.521696         1.317940         2.540428
 H         4.000953        -1.266314         2.839584
 H         0.953133        -2.113996         1.288957
 H         0.245008        -0.715871         2.229541
 H         0.242569        -0.167219        -0.479105
 H         3.264896        -1.771751        -1.055450
