19
Iteration:  2700charge 0 multiplicity 1
 C         1.839313         2.190792        -0.595813
 C         1.954940         1.052852         0.446205
 C         2.291873         0.960395         1.828628
 C         2.368779        -0.577742         1.807188
 O         3.180904        -1.124456         2.858814
 C         0.980277        -1.197774         1.485732
 C         1.135197        -0.389507         0.189360
 C         2.620584        -0.391408         0.242202
 O         3.455500        -0.870700        -0.790140
 H         2.840908         2.867498        -0.688237
 H         1.278231         1.814458        -1.531049
 H         1.099787         2.932473        -0.137640
 H         3.382096         1.236139         1.887532
 H         1.631203         1.378523         2.569023
 H         3.082736        -2.103921         2.672316
 H         1.082362        -2.232799         1.172907
 H         0.104110        -0.920253         2.202134
 H         0.960464        -0.847894        -0.744089
 H         2.840813        -0.947312        -1.577307
