19
Iteration:   373charge 0 multiplicity 1
 C         1.726555         2.000162        -0.705768
 C         1.911636         1.007004         0.394261
 C         2.173658         1.033886         1.877376
 C         2.432677        -0.482752         1.851630
 O         3.445220        -1.212384         2.725992
 C         0.966604        -1.117285         1.480248
 C         1.075118        -0.364819         0.163520
 C         2.593053        -0.380823         0.224850
 O         3.456236        -0.928721        -0.685784
 H         1.291275         2.932616        -0.193594
 H         2.604693         2.262991        -1.340004
 H         0.896538         1.750083        -1.315109
 H         3.023996         1.686066         2.112264
 H         1.198307         1.327904         2.407440
 H         2.947225        -1.671823         3.420579
 H         0.853499        -2.154786         1.391086
 H         0.277254        -0.684253         2.410149
 H         0.438568        -0.208795        -0.622662
 H         4.277862        -0.315563        -0.593948
