19
Iteration:  4180
 C         1.874493         2.248066        -0.349711
 C         1.875971         0.917038         0.362779
 C         2.063154         0.958776         1.868486
 C         2.364020        -0.540947         1.880832
 O         3.170992        -1.208393         2.877768
 C         0.986612        -1.114528         1.454062
 C         1.116756        -0.544590         0.096802
 C         2.655178        -0.354892         0.095853
 O         3.648905        -0.812273        -0.953385
 H         2.485941         2.852221         0.283682
 H         2.371077         2.188965        -1.300684
 H         0.914734         2.612662        -0.427547
 H         2.901460         1.627976         2.302170
 H         1.071405         1.174705         2.408197
 H         3.638015        -0.459284         3.289376
 H         1.062074        -2.297511         1.386923
 H         0.143310        -0.853200         2.071181
 H         0.461841        -0.590347        -0.857936
 H         3.376158        -1.736726        -1.106127
