19
Iteration:  2648charge 0 multiplicity 1
 C         1.849023         2.222570        -0.506172
 C         1.884604         0.886759         0.382001
 C         2.164621         0.992762         1.875261
 C         2.371680        -0.577954         1.740043
 O         3.224697        -1.151117         2.654571
 C         0.921638        -1.065406         1.586396
 C         1.036571        -0.417347         0.197796
 C         2.669705        -0.381639         0.197900
 O         3.637623        -0.931615        -0.690163
 H         2.784630         2.352199        -0.982942
 H         1.044262         2.364125        -1.214170
 H         1.785806         3.070459         0.188879
 H         3.060856         1.629226         2.007847
 H         1.340700         1.415548         2.489280
 H         3.410554        -2.092140         2.465578
 H         0.907387        -2.128722         1.513752
 H         0.192789        -0.688771         2.404705
 H         0.410677        -0.490428        -0.662765
 H         3.271838        -1.009078        -1.560337
