19
Iteration:  2499charge 0 multiplicity 1
 C         1.847596         2.151628        -0.531047
 C         1.957992         0.930008         0.350155
 C         2.377806         0.885816         1.867653
 C         2.381975        -0.615277         1.904513
 O         3.113553        -1.197597         2.931464
 C         0.920000        -1.119654         1.537935
 C         1.117750        -0.334443         0.205239
 C         2.631979        -0.398932         0.136876
 O         3.411533        -0.753264        -0.996694
 H         1.947089         3.132584         0.046919
 H         2.719919         2.113508        -1.247822
 H         0.830124         2.329001        -1.082571
 H         3.349503         1.347731         1.745350
 H         1.773354         1.362362         2.659584
 H         3.929137        -0.742034         3.133450
 H         0.953417        -2.310167         1.491216
 H         0.103530        -0.969470         2.356760
 H         0.726448        -0.371912        -0.768774
 H         3.211248        -1.648726        -1.191204
