19
Iteration:   595charge 0 multiplicity 1
 C         1.819592         2.063168        -0.642610
 C         1.885612         0.993489         0.426025
 C         2.252418         1.018467         1.864211
 C         2.482413        -0.578237         1.761292
 O         3.266758        -1.100466         2.760420
 C         1.018162        -1.190407         1.575757
 C         1.084273        -0.343182         0.215372
 C         2.631339        -0.345385         0.197180
 O         3.284745        -0.972244        -0.805444
 H         1.027006         1.858445        -1.398418
 H         1.506923         3.121694        -0.265915
 H         2.850697         2.229045        -1.135946
 H         3.100678         1.638075         2.133368
 H         1.404715         1.193159         2.703051
 H         3.846495        -0.613308         3.381098
 H         1.004222        -2.235569         1.360300
 H         0.327482        -0.895439         2.299762
 H         0.481994        -0.526903        -0.703685
 H         4.304569        -1.007415        -0.668487
