19
Iteration:  1429
 C         1.828698         2.122806        -0.666851
 C         1.896564         1.025237         0.412205
 C         2.512003         1.039972         1.917260
 C         2.500102        -0.457751         1.802645
 O         3.255508        -1.347690         2.514003
 C         1.021819        -0.986360         1.741693
 C         1.021947        -0.235679         0.387580
 C         2.456067        -0.420803         0.157499
 O         3.266253        -1.041437        -0.757701
 H         2.491040         2.994794        -0.573509
 H         2.030670         1.707284        -1.651474
 H         0.839654         2.524102        -0.840803
 H         3.526561         1.450437         1.857205
 H         2.009077         1.546477         2.748424
 H         4.211753        -1.162930         2.394233
 H         1.081777        -2.123310         1.616743
 H         0.304508        -0.696317         2.634682
 H         0.184648        -0.232287        -0.367566
 H         2.891814        -1.818542        -1.187072
