19
Iteration:  1034charge 0 multiplicity 1
 C         1.714298         2.164661        -0.578472
 C         1.989638         0.960915         0.320436
 C         2.487956         0.960662         1.825983
 C         2.469197        -0.606686         1.755267
 O         3.345878        -1.242380         2.594964
 C         0.917247        -0.787226         1.784701
 C         1.051862        -0.328472         0.332365
 C         2.518476        -0.463027         0.175339
 O         3.321888        -1.125550        -0.796187
 H         2.366884         2.246554        -1.412056
 H         0.683590         2.428630        -0.788773
 H         2.112782         3.055716         0.011058
 H         3.655857         1.184703         1.809105
 H         1.906767         1.457869         2.577997
 H         3.888497        -0.503003         2.849335
 H         0.465475        -1.833256         1.836258
 H         0.285867        -0.142325         2.453689
 H         0.282268        -0.310357        -0.382726
 H         2.660829        -1.507838        -1.371733
