19
Iteration:  1893charge 0 multiplicity 1
 C         1.985789         2.111359        -0.701338
 C         1.977913         0.996726         0.423686
 C         2.460597         0.920687         1.923349
 C         2.434622        -0.602891         1.862317
 O         3.398215        -1.323638         2.637719
 C         0.892932        -0.956500         1.746771
 C         0.971321        -0.222026         0.344180
 C         2.422065        -0.403662         0.154711
 O         3.231403        -0.924260        -0.908221
 H         2.463704         1.710600        -1.626184
 H         1.031367         2.649846        -0.949842
 H         2.535562         3.063551        -0.334463
 H         3.404068         1.350455         2.150825
 H         1.628084         1.286594         2.502852
 H         4.000045        -0.669910         3.028794
 H         0.795238        -1.995369         1.563838
 H         0.177528        -0.720826         2.562242
 H         0.274025        -0.250933        -0.450124
 H         2.645636        -1.571792        -1.411190
