19
Iteration:  2242
 C         1.957109         2.012266        -0.691497
 C         1.932288         0.970846         0.378361
 C         2.399475         0.926519         1.951368
 C         2.380914        -0.595157         1.786405
 O         3.342552        -1.289404         2.613503
 C         0.873989        -1.023017         1.650349
 C         0.900130        -0.126486         0.339195
 C         2.469759        -0.439547         0.174604
 O         3.433587        -0.816300        -0.778863
 H         2.526671         1.732749        -1.614891
 H         0.921429         2.260600        -0.965724
 H         2.396181         2.917614        -0.314277
 H         3.326304         1.387768         2.140231
 H         1.642068         1.281537         2.634424
 H         4.159618        -0.777125         2.746549
 H         0.840159        -2.043015         1.339135
 H         0.140235        -0.811238         2.440177
 H         0.036495        -0.105567        -0.325222
 H         3.399813        -1.838906        -0.747769
