19
Iteration:  2230
 C         1.972379         1.995373        -0.613662
 C         1.925653         0.924253         0.487970
 C         2.324557         1.018461         1.904223
 C         2.512556        -0.511391         1.734206
 O         3.343176        -1.303458         2.475744
 C         0.876553        -0.956164         1.565300
 C         0.849296        -0.221028         0.359267
 C         2.384797        -0.471104         0.175351
 O         3.468796        -0.856856        -0.659424
 H         2.709439         1.623477        -1.433723
 H         1.002262         2.214856        -1.104990
 H         2.367050         2.892650        -0.180152
 H         3.326880         1.330081         1.991734
 H         1.761840         1.350359         2.700643
 H         4.124912        -0.735144         2.745807
 H         0.808619        -2.011446         1.524005
 H         0.176233        -0.577242         2.304850
 H        -0.042928        -0.082819        -0.317023
 H         3.394637        -1.764774        -0.892149
