19
Iteration:  1816
 C         1.818372         2.125108        -0.534633
 C         2.086933         0.927392         0.336288
 C         2.528776         0.931009         1.756340
 C         2.448519        -0.521349         1.748337
 O         3.258939        -1.385998         2.472562
 C         0.854027        -0.775050         1.820166
 C         0.888752        -0.272105         0.399109
 C         2.450147        -0.530917         0.193514
 O         3.393592        -0.881542        -0.742116
 H         2.709088         2.347601        -1.149239
 H         1.036605         1.785139        -1.251416
 H         1.650074         3.020795         0.143930
 H         3.541735         1.427215         1.892415
 H         1.843494         1.312862         2.581309
 H         4.211494        -1.268339         2.138348
 H         0.664889        -1.803029         1.944142
 H         0.303055        -0.217751         2.566067
 H         0.259080        -0.079295        -0.490352
 H         3.202760        -1.842537        -0.941739
