19
Iteration:  4418
 C         1.683192         2.158853        -0.490801
 C         1.874122         0.927534         0.330269
 C         2.322367         0.970795         1.857189
 C         2.414161        -0.536616         1.793424
 O         3.117696        -1.340875         2.725425
 C         0.950663        -1.090495         1.426281
 C         1.065946        -0.489856         0.061807
 C         2.528665        -0.407113         0.140706
 O         3.724285        -0.692000        -0.479708
 H         2.241332         2.916569         0.061366
 H         2.202987         2.209243        -1.541297
 H         0.642744         2.545819        -0.698965
 H         3.359586         1.465487         1.920793
 H         1.755759         1.560601         2.670900
 H         4.028185        -1.391365         2.381527
 H         0.961082        -2.197490         1.589571
 H         0.233281        -0.593092         2.190995
 H         0.314832        -0.359435        -0.734194
 H         3.492352        -1.016245        -1.433733
