19
Iteration:  4968
 C         1.966193         2.234708        -0.524633
 C         1.909672         0.996370         0.411307
 C         2.285232         0.914688         1.887564
 C         2.344074        -0.699596         1.780311
 O         3.127988        -1.232743         2.792386
 C         0.991996        -1.195135         1.476581
 C         0.986120        -0.367846         0.182515
 C         2.502672        -0.317327         0.104247
 O         3.527038        -0.816590        -0.697407
 H         1.422117         3.135092        -0.076644
 H         3.051387         2.421731        -0.770622
 H         1.342672         1.824692        -1.359362
 H         3.465598         1.183197         1.910847
 H         1.878605         1.421794         2.742490
 H         3.992986        -0.763417         2.858494
 H         1.081418        -2.272113         1.143870
 H         0.259201        -1.077576         2.225211
 H         0.270762        -0.583885        -0.702885
 H         3.685224        -0.278549        -1.543216
