19
Iteration:  2757charge 0 multiplicity 1
 C         1.824411         2.133397        -0.701956
 C         1.919944         0.964907         0.371753
 C         2.344278         0.887341         1.902459
 C         2.292146        -0.556190         1.845677
 O         3.335636        -1.225829         2.603135
 C         0.844323        -1.029899         1.569772
 C         1.048491        -0.362904         0.192269
 C         2.553014        -0.452764         0.271349
 O         3.538539        -0.745425        -0.672287
 H         2.305233         2.973893        -0.082814
 H         2.395288         2.158376        -1.668157
 H         0.753700         2.537870        -0.739251
 H         3.397056         1.127778         2.050829
 H         1.705968         1.407726         2.636137
 H         3.200679        -2.171774         2.626870
 H         0.508514        -2.025067         1.494417
 H         0.046410        -0.587632         2.294817
 H         0.394690        -0.431542        -0.679405
 H         4.162651        -1.432840        -0.489906
