19
Iteration:  1289
 C         1.839852         1.864600        -0.771957
 C         1.912858         0.978033         0.409756
 C         2.407382         0.994054         1.922765
 C         2.438889        -0.563994         1.856335
 O         3.379301        -1.456770         2.608923
 C         0.898275        -0.795547         1.747834
 C         0.952037        -0.189847         0.353054
 C         2.518699        -0.414878         0.225105
 O         3.350084        -0.748490        -0.816386
 H         1.544781         1.209905        -1.634265
 H         1.124016         2.745738        -0.748960
 H         2.811398         2.258463        -1.116040
 H         3.428167         1.560103         1.956221
 H         1.847721         1.417851         2.699252
 H         4.215574        -1.043645         2.376543
 H         0.831097        -1.879479         1.550055
 H         0.293308        -0.444358         2.589974
 H         0.190878        -0.281513        -0.379900
 H         3.196778        -1.709999        -1.128253
