19
Iteration:  2020
 C         1.944976         2.100879        -0.715322
 C         1.891073         0.974480         0.377155
 C         2.401861         1.089577         1.892030
 C         2.484159        -0.566456         1.796540
 O         3.273275        -1.518587         2.452894
 C         0.981096        -0.868515         1.774399
 C         0.919385        -0.265927         0.325973
 C         2.478156        -0.380059         0.297304
 O         3.367649        -0.873091        -0.665417
 H         0.939036         2.503696        -0.902841
 H         2.346839         3.045030        -0.476824
 H         2.209257         1.737272        -1.651574
 H         3.408434         1.624571         2.043335
 H         1.644801         1.438824         2.652264
 H         4.127059        -1.584934         1.935965
 H         0.753232        -1.982832         1.711489
 H         0.485181        -0.345598         2.563281
 H         0.284353        -0.433023        -0.514729
 H         3.108271        -1.731792        -1.177264
