19
Iteration:  3651charge 0 multiplicity 1
 C         1.842273         2.025014        -0.591180
 C         1.953514         0.976566         0.388595
 C         2.223148         1.053403         1.902213
 C         2.401364        -0.526628         1.791111
 O         3.150225        -1.146159         2.816299
 C         1.037110        -1.112793         1.482469
 C         1.180030        -0.335410         0.214169
 C         2.687349        -0.300080         0.239770
 O         3.422124        -0.883341        -0.835540
 H         2.783396         2.659538        -0.616103
 H         1.526309         1.635304        -1.604045
 H         1.035803         2.748356        -0.259216
 H         3.131901         1.463011         2.286198
 H         1.389459         1.292736         2.522628
 H         3.167693        -2.114554         2.575740
 H         0.942970        -2.224364         1.265179
 H         0.271948        -0.959846         2.224015
 H         0.520664        -0.552295        -0.700663
 H         2.954671        -1.804256        -0.754404
