19
Iteration:   423charge 0 multiplicity 1
 C         1.837406         2.182108        -0.533449
 C         1.871870         0.938508         0.321801
 C         2.163305         0.964224         1.853684
 C         2.381181        -0.530331         1.792784
 O         3.301245        -1.070681         2.753491
 C         1.068089        -1.167012         1.576486
 C         1.008748        -0.542802         0.146542
 C         2.530364        -0.398867         0.143985
 O         3.477369        -0.927658        -0.733467
 H         1.909187         3.031803         0.156046
 H         2.776638         2.177022        -1.095381
 H         0.968340         2.210867        -1.291442
 H         3.155124         1.568179         1.917200
 H         1.501279         1.493257         2.490280
 H         3.826902        -0.269271         2.943722
 H         1.143935        -2.344503         1.538149
 H         0.166592        -0.917015         2.161315
 H         0.250633        -0.680113        -0.714629
 H         4.279057        -0.638371        -0.295936
