19
Iteration:  4624charge 0 multiplicity 1
 C         1.929172         2.113542        -0.511582
 C         1.895885         0.911425         0.396774
 C         2.182832         0.982394         1.852600
 C         2.421569        -0.522882         1.840198
 O         3.208172        -1.330981         2.563671
 C         0.907268        -0.930282         1.666276
 C         1.054595        -0.465909         0.152516
 C         2.540635        -0.490454         0.199999
 O         3.584720        -0.699339        -0.688868
 H         0.916111         2.197328        -0.902484
 H         2.128597         2.938949         0.180211
 H         2.671913         1.938140        -1.330214
 H         2.905940         1.694124         2.112618
 H         1.330904         1.222793         2.461015
 H         4.129027        -1.237638         2.201631
 H         0.773705        -1.950299         1.822580
 H         0.104398        -0.363211         2.199395
 H         0.556396        -0.739054        -0.795499
 H         3.388075        -1.372952        -1.349418
