19
Iteration:  3986charge 0 multiplicity 1
 C         1.856214         2.186323        -0.500690
 C         1.975134         0.938055         0.370844
 C         2.077870         0.919470         1.878414
 C         2.362534        -0.571972         1.837352
 O         3.268455        -1.110202         2.790903
 C         0.966180        -1.173823         1.443154
 C         1.141846        -0.399085         0.086968
 C         2.702566        -0.338774         0.243559
 O         3.508999        -0.796617        -0.772864
 H         2.837347         2.822003        -0.480437
 H         1.631601         1.772043        -1.532963
 H         0.898713         2.845300        -0.216498
 H         2.901303         1.378775         2.397432
 H         1.144077         1.091188         2.405825
 H         2.664785        -1.758918         3.215085
 H         0.996941        -2.216737         1.286412
 H         0.119060        -0.846003         2.188101
 H         0.971943        -0.706478        -0.923517
 H         3.192307        -1.564828        -1.186980
