19
Iteration:  3221charge 0 multiplicity 1
 C         1.841933         2.068011        -0.517032
 C         1.955446         0.904268         0.431452
 C         2.377466         1.004217         1.828229
 C         2.387158        -0.559394         1.760891
 O         3.117495        -1.155045         2.824342
 C         0.923498        -1.082118         1.568184
 C         1.081869        -0.368099         0.151950
 C         2.579211        -0.445470         0.131641
 O         3.518536        -0.722819        -0.800360
 H         2.720213         2.169698        -1.198714
 H         1.126950         1.748872        -1.258825
 H         1.533067         2.947473         0.049410
 H         3.412238         1.481457         1.802257
 H         1.798402         1.470711         2.681665
 H         3.407102        -2.066521         2.588453
 H         0.657709        -2.149262         1.473119
 H         0.278120        -0.686623         2.393454
 H         0.369539        -0.430409        -0.628467
 H         3.534155        -1.666578        -0.793142
