19
Iteration:   622
 C         1.736763         2.105029        -0.610498
 C         1.978481         0.946252         0.387093
 C         2.304605         0.999707         1.830408
 C         2.392087        -0.478335         1.957816
 O         3.254279        -1.138686         2.845659
 C         1.050275        -1.141758         1.533212
 C         1.090788        -0.338454         0.193612
 C         2.581587        -0.394048         0.140667
 O         3.288907        -0.956427        -0.885574
 H         1.587661         1.529438        -1.531449
 H         0.922797         2.735728        -0.329993
 H         2.623560         2.687926        -0.664159
 H         3.331120         1.422803         2.005644
 H         1.600807         1.483316         2.507580
 H         4.168467        -0.861886         3.065598
 H         1.441868        -2.225335         1.334443
 H         0.096301        -0.941328         2.191344
 H         0.400620        -0.563582        -0.684376
 H         4.281007        -1.108689        -0.688669
