19
Iteration:  4614charge 0 multiplicity 1
 C         1.839168         2.078627        -0.550782
 C         1.913425         0.883164         0.370950
 C         2.245750         0.995493         1.903183
 C         2.387024        -0.534211         1.836725
 O         3.201019        -1.389585         2.661563
 C         0.897393        -0.956945         1.582291
 C         1.044489        -0.439213         0.204240
 C         2.571854        -0.410585         0.145865
 O         3.622311        -0.688031        -0.709789
 H         0.965297         2.328105        -1.099927
 H         2.141364         3.030523        -0.092159
 H         2.596912         2.010230        -1.370801
 H         3.184300         1.522103         2.021051
 H         1.422784         1.369141         2.514958
 H         4.110972        -1.067890         2.488631
 H         0.805823        -2.033472         1.620523
 H         0.162874        -0.504729         2.292944
 H         0.143239        -0.400129        -0.436328
 H         3.279831        -1.395358        -1.317892
