19
Iteration:    21charge 0 multiplicity 1
 C         1.725762         2.066208        -0.713854
 C         2.056563         1.029732         0.381388
 C         2.212563         1.040700         1.894983
 C         2.435328        -0.575817         1.820782
 O         3.336019        -1.262787         2.583585
 C         0.894104        -1.015707         1.712868
 C         1.122751        -0.435442         0.255143
 C         2.630853        -0.340274         0.253220
 O         3.408940        -0.852681        -0.823271
 H         2.023358         1.585481        -1.653114
 H         0.643272         2.267629        -0.650767
 H         2.371990         3.022631        -0.570213
 H         3.138940         1.553417         2.333425
 H         1.350436         1.347483         2.460329
 H         3.032723        -1.407944         3.504717
 H         0.688501        -2.106384         1.692003
 H         0.243545        -0.438370         2.328445
 H         0.617651        -0.565030        -0.651851
 H         3.816137        -1.623545        -0.468125
