19
Iteration:  4831charge 0 multiplicity 1
 C         1.977850         2.132266        -0.547139
 C         1.872841         0.933112         0.411152
 C         2.031145         1.098551         1.885154
 C         2.421049        -0.623496         1.790450
 O         3.329366        -1.295357         2.577556
 C         0.925036        -1.086928         1.540944
 C         1.047021        -0.379566         0.211464
 C         2.621696        -0.350369         0.288907
 O         3.487496        -0.869887        -0.663547
 H         1.085720         2.721780        -0.673326
 H         2.737542         2.807710        -0.151221
 H         2.208484         1.883737        -1.599411
 H         2.948939         1.614194         2.081190
 H         1.104603         1.368807         2.501395
 H         3.902285        -1.966515         2.184090
 H         0.652573        -2.123755         1.493841
 H         0.267502        -0.597910         2.345286
 H         0.379516        -0.536229        -0.721534
 H         3.658252        -0.200220        -1.293934
