19
Iteration:   285
 C         1.771698         2.050592        -0.619805
 C         1.928399         0.980329         0.372476
 C         2.209661         1.045468         1.915853
 C         2.434356        -0.510619         1.745551
 O         3.235906        -1.170466         2.646608
 C         0.979679        -1.035773         1.615489
 C         1.085614        -0.426281         0.265634
 C         2.577359        -0.397126         0.170096
 O         3.526655        -1.018311        -0.689510
 H         0.681081         2.098403        -0.897236
 H         2.109954         2.974464        -0.142096
 H         2.400807         1.767364        -1.427587
 H         3.127201         1.555146         2.238439
 H         1.355054         1.357877         2.524038
 H         4.067070        -0.666532         2.556665
 H         0.967352        -2.108387         1.463519
 H         0.156478        -0.709222         2.454712
 H         0.265383        -0.419556        -0.532662
 H         3.603020        -0.302051        -1.377440
