19
Iteration:  1385charge 0 multiplicity 1
 C         1.761807         2.189852        -0.412338
 C         2.029932         0.932500         0.359173
 C         2.429662         1.015015         1.817226
 C         2.443268        -0.548005         1.830523
 O         3.338763        -1.193983         2.662902
 C         0.968612        -0.867648         1.685051
 C         0.994233        -0.254643         0.289171
 C         2.507366        -0.580530         0.129132
 O         3.287611        -1.138717        -0.969079
 H         2.703066         2.559537        -0.846824
 H         1.096758         2.299662        -1.256135
 H         1.616612         3.042115         0.232783
 H         3.413773         1.498257         1.983090
 H         1.754940         1.508275         2.551601
 H         4.041426        -0.519983         2.784668
 H         0.892048        -1.988460         1.496296
 H         0.308547        -0.448170         2.547017
 H         0.198312        -0.171574        -0.435437
 H         3.104749        -2.091931        -0.789832
