19
Iteration:  1553charge 0 multiplicity 1
 C         1.821572         2.115135        -0.452184
 C         2.035855         0.955672         0.418289
 C         2.554716         1.018149         1.846333
 C         2.522019        -0.523068         1.799318
 O         3.367483        -1.273787         2.616066
 C         0.908390        -0.863251         1.645255
 C         1.039262        -0.190578         0.354994
 C         2.515628        -0.503501         0.172783
 O         3.084123        -1.128662        -0.917629
 H         0.823382         2.317316        -0.791628
 H         2.258782         3.058096        -0.153260
 H         2.267902         1.979507        -1.437428
 H         3.591549         1.508206         1.922167
 H         1.963712         1.298809         2.663697
 H         4.153288        -0.710351         2.759596
 H         0.638423        -1.915428         1.434845
 H         0.325726        -0.354253         2.555825
 H         0.386196        -0.270734        -0.447167
 H         2.366676        -1.570248        -1.347581
