19
Iteration:  2323
 C         1.783114         2.203846        -0.531677
 C         2.048920         0.949599         0.373514
 C         2.479940         0.868974         1.836348
 C         2.358039        -0.625795         1.792260
 O         3.220901        -1.223160         2.846676
 C         0.954719        -0.995552         1.619278
 C         1.032356        -0.307862         0.126131
 C         2.447903        -0.472855         0.163865
 O         3.431326        -0.851588        -0.822230
 H         0.946727         2.062834        -1.172869
 H         1.582242         3.161822        -0.056516
 H         2.665335         2.440949        -1.205530
 H         3.601678         1.127879         1.864246
 H         1.842415         1.421984         2.662497
 H         3.955649        -0.612971         2.887721
 H         0.988488        -2.146522         1.473353
 H         0.253025        -0.760401         2.491887
 H         0.268379        -0.381924        -0.694689
 H         2.972037        -1.548594        -1.439058
