19
Iteration:  2640charge 0 multiplicity 1
 C         1.857780         2.214542        -0.536896
 C         1.895487         0.957269         0.345699
 C         2.182106         0.945436         1.805416
 C         2.370589        -0.593213         1.790793
 O         3.268435        -1.191314         2.647092
 C         0.907330        -1.019417         1.584938
 C         1.114009        -0.461539         0.172760
 C         2.589669        -0.374037         0.204501
 O         3.587734        -0.880339        -0.592409
 H         2.728601         2.428164        -1.083820
 H         1.055807         2.361650        -1.227125
 H         1.723283         2.962564         0.242434
 H         3.103471         1.511989         1.976520
 H         1.403499         1.270997         2.561988
 H         3.406593        -2.067521         2.261101
 H         0.994378        -2.135074         1.599480
 H         0.131899        -0.782475         2.207238
 H         0.364825        -0.424021        -0.644260
 H         3.166860        -0.990479        -1.413436
