19
Iteration:   143
 C         1.774635         2.091293        -0.700081
 C         1.959102         0.974912         0.372150
 C         2.278503         1.052260         1.836106
 C         2.401188        -0.546916         1.853412
 O         3.291561        -1.286615         2.687559
 C         0.985056        -1.081677         1.575846
 C         1.062077        -0.328665         0.272111
 C         2.590627        -0.342814         0.246809
 O         3.364334        -0.974596        -0.666506
 H         1.923270         1.670641        -1.729237
 H         0.760596         2.540548        -0.665712
 H         2.448878         2.894121        -0.495368
 H         3.229310         1.561556         1.948301
 H         1.532066         1.537684         2.498300
 H         4.173483        -1.094357         2.346244
 H         0.961149        -2.109246         1.340965
 H         0.228309        -0.908544         2.259150
 H         0.273354        -0.266306        -0.566750
 H         4.128488        -0.461123        -0.984170
