19
Iteration:  2157
 C         1.767869         2.099632        -0.555608
 C         1.974731         0.922882         0.416123
 C         2.477085         0.944066         1.875099
 C         2.486771        -0.589228         1.752519
 O         3.164299        -1.252521         2.684447
 C         0.940759        -0.940174         1.573905
 C         1.021349        -0.156122         0.346210
 C         2.567302        -0.472225         0.182912
 O         3.392211        -0.906239        -0.834004
 H         2.736555         2.363278        -0.879526
 H         1.247319         1.643119        -1.397028
 H         1.215662         2.925957        -0.087716
 H         3.487790         1.343488         1.785044
 H         1.719871         1.403640         2.656223
 H         4.067182        -1.190220         2.367518
 H         0.700859        -1.954088         1.266686
 H         0.321649        -0.554433         2.470104
 H         0.209072        -0.282490        -0.351861
 H         3.329869        -1.845546        -0.775944
