19
Iteration:  3820charge 0 multiplicity 1
 C         1.871498         2.227436        -0.379596
 C         1.846401         0.895534         0.370492
 C         2.082117         0.994858         1.855350
 C         2.402602        -0.573963         1.777327
 O         3.236161        -1.064959         2.840558
 C         1.039914        -1.117169         1.471356
 C         1.082655        -0.492181         0.092648
 C         2.605604        -0.399573         0.101609
 O         3.609822        -0.892841        -0.766656
 H         2.938095         2.565268        -0.489432
 H         1.390990         2.190518        -1.387892
 H         1.530921         3.139887         0.183196
 H         2.986588         1.705718         1.857360
 H         1.178383         1.413474         2.384422
 H         2.979593        -2.018099         2.952910
 H         0.863031        -2.220582         1.448049
 H         0.349526        -0.550615         2.169510
 H         0.408807        -0.482240        -0.831499
 H         3.450299        -1.816866        -1.181817
