19
Iteration:  1975
 C         1.786423         2.077044        -0.528079
 C         2.031925         0.984186         0.435699
 C         2.548882         0.988358         1.891315
 C         2.485204        -0.546137         1.688181
 O         3.214233        -1.339896         2.649652
 C         0.968551        -0.876805         1.648873
 C         0.960259        -0.198718         0.257709
 C         2.385197        -0.497182         0.118255
 O         3.379380        -0.931247        -0.745406
 H         0.816023         2.106308        -1.035525
 H         1.717265         3.005073        -0.002352
 H         2.492388         2.097220        -1.300215
 H         3.651166         1.359223         1.812508
 H         2.111212         1.514538         2.749745
 H         4.169946        -1.310635         2.342186
 H         0.775593        -1.983524         1.578667
 H         0.391824        -0.360418         2.381504
 H         0.137005        -0.378223        -0.428431
 H         3.011729        -1.865690        -0.954789
