19
Iteration:  1138charge 0 multiplicity 1
 C         1.885685         1.983659        -0.580993
 C         1.959159         0.870669         0.362756
 C         2.520143         0.989495         1.775269
 C         2.480555        -0.528022         1.827684
 O         3.233719        -1.240502         2.653925
 C         0.977576        -0.877828         1.821903
 C         0.936008        -0.386899         0.373592
 C         2.429167        -0.444196         0.100787
 O         3.315188        -0.801443        -0.860312
 H         1.943905         1.712379        -1.636494
 H         1.066893         2.691595        -0.649020
 H         2.752413         2.579963        -0.416370
 H         3.561475         1.283661         1.722042
 H         1.972508         1.571671         2.674527
 H         4.150524        -1.256738         2.300384
 H         0.745757        -1.896951         2.073973
 H         0.312926        -0.225653         2.437208
 H         0.146834        -0.381431        -0.293374
 H         3.070179        -1.673534        -1.327826
