19
Iteration:  1821
 C         1.836174         2.102822        -0.547709
 C         2.103880         0.941655         0.318307
 C         2.523204         0.969440         1.741042
 C         2.438147        -0.591873         1.754109
 O         3.277200        -1.403037         2.490892
 C         0.867054        -0.786952         1.840251
 C         0.932610        -0.296093         0.360259
 C         2.393504        -0.478497         0.182131
 O         3.363513        -0.835609        -0.720204
 H         2.707574         2.212994        -1.204546
 H         1.000395         2.053087        -1.252223
 H         1.726129         2.998504         0.012887
 H         3.522929         1.452816         2.025670
 H         1.821539         1.151095         2.557215
 H         4.111140        -1.390618         2.035967
 H         0.673213        -1.848916         2.265023
 H         0.309484        -0.081334         2.532103
 H         0.307980        -0.237959        -0.520025
 H         3.202511        -1.804621        -0.814552
