19
Iteration:   251charge 0 multiplicity 1
 C         1.813449         2.130071        -0.734203
 C         1.825235         1.001887         0.346743
 C         2.269529         0.998191         1.849529
 C         2.419824        -0.529514         1.783122
 O         3.306332        -1.214121         2.627134
 C         1.050977        -1.112143         1.591723
 C         1.063237        -0.407444         0.268233
 C         2.574262        -0.344806         0.304854
 O         3.453255        -0.942077        -0.605552
 H         0.889103         2.235319        -1.355324
 H         1.970809         3.122233        -0.221601
 H         2.574750         2.057362        -1.526336
 H         3.307327         1.400405         2.074088
 H         1.660775         1.309560         2.708803
 H         3.555960        -0.527828         3.298446
 H         1.148669        -2.176516         1.229165
 H         0.039163        -1.159717         2.312976
 H         0.398957        -0.595852        -0.666795
 H         2.880623        -0.987941        -1.357773
