19
Iteration:   771charge 0 multiplicity 1
 C         1.857621         2.071650        -0.583358
 C         1.909898         0.976990         0.422858
 C         2.316887         1.013181         1.808166
 C         2.386247        -0.516033         1.768499
 O         3.372119        -1.184841         2.624125
 C         0.943787        -0.969113         1.693781
 C         1.050293        -0.373351         0.260677
 C         2.478818        -0.409171         0.172866
 O         3.411267        -1.059045        -0.705946
 H         2.129270         2.998912        -0.043152
 H         2.565019         1.912089        -1.445982
 H         0.780435         2.332149        -0.917532
 H         3.256966         1.445920         1.869493
 H         1.593282         1.457451         2.494643
 H         4.311231        -1.072846         2.508188
 H         0.890309        -2.079232         1.640514
 H         0.203598        -0.493485         2.414805
 H         0.142295        -0.251341        -0.366280
 H         3.045406        -0.870780        -1.608348
