19
Iteration:  2912
 C         1.819313         2.140856        -0.492500
 C         1.858680         0.914329         0.444424
 C         2.317460         1.048297         1.969041
 C         2.426884        -0.525239         1.805641
 O         3.207807        -1.185928         2.717778
 C         0.928217        -1.036712         1.470032
 C         1.156885        -0.396217         0.115674
 C         2.636074        -0.463130         0.214495
 O         3.450846        -0.967366        -0.868304
 H         2.749193         2.421208        -1.039128
 H         0.992844         1.938512        -1.268245
 H         1.648117         3.127863         0.131163
 H         3.242882         1.573572         2.056606
 H         1.518470         1.355458         2.645229
 H         2.600451        -1.647109         3.354805
 H         0.925965        -2.076407         1.448341
 H         0.080708        -0.519231         2.033020
 H         0.439281        -0.475555        -0.657813
 H         4.317051        -0.423221        -0.868275
