19
Iteration:   439charge 0 multiplicity 1
 C         1.826359         2.114183        -0.503446
 C         1.793448         0.859317         0.288621
 C         2.200722         1.025105         1.745190
 C         2.451199        -0.542152         1.833464
 O         3.303738        -1.060570         2.806480
 C         0.961622        -1.147059         1.524003
 C         1.030371        -0.395217         0.191442
 C         2.535317        -0.521203         0.161287
 O         3.510789        -0.865757        -0.725052
 H         1.652274         3.046879         0.119775
 H         2.719949         2.278293        -1.185911
 H         0.981985         2.259560        -1.130950
 H         3.105133         1.610875         1.977755
 H         1.303617         1.203722         2.469918
 H         4.262473        -0.803249         2.817036
 H         1.081293        -2.114682         1.234617
 H         0.239154        -1.009259         2.312630
 H         0.430190        -0.619916        -0.653404
 H         4.369453        -0.733624        -0.396720
