19
Iteration:   560charge 0 multiplicity 1
 C         1.852001         2.085635        -0.562671
 C         1.812885         0.861742         0.321838
 C         2.216395         1.096215         1.800425
 C         2.476324        -0.458938         1.830740
 O         3.380323        -1.238106         2.619285
 C         0.883024        -1.110233         1.621053
 C         0.999492        -0.406968         0.227891
 C         2.542525        -0.472994         0.227264
 O         3.500637        -0.931450        -0.676533
 H         0.863218         2.311061        -1.156368
 H         2.115979         3.112438        -0.011920
 H         2.590373         2.032850        -1.410163
 H         3.169349         1.708382         1.859315
 H         1.358813         1.501730         2.458165
 H         3.982653        -0.655474         3.139555
 H         0.779781        -2.127952         1.672562
 H         0.087894        -0.658014         2.201088
 H         0.302930        -0.543368        -0.739320
 H         4.035336        -0.103101        -0.939678
