19
Iteration:  1312charge 0 multiplicity 1
 C         1.835048         1.865366        -0.721530
 C         2.011188         0.999386         0.443477
 C         2.506235         1.043312         1.916089
 C         2.486932        -0.558734         1.731364
 O         3.181729        -1.355494         2.614624
 C         1.007095        -0.921352         1.793359
 C         0.972606        -0.284401         0.377537
 C         2.507226        -0.428343         0.182078
 O         3.288722        -0.745458        -0.846712
 H         2.082264         1.312280        -1.676087
 H         0.819080         2.301917        -0.937193
 H         2.499738         2.741848        -0.871533
 H         3.499353         1.472606         2.327708
 H         1.764670         1.467686         2.524371
 H         4.174743        -1.160882         2.591319
 H         0.822991        -2.012943         1.821470
 H         0.390823        -0.317048         2.535563
 H         0.127497        -0.129377        -0.394806
 H         3.142733        -1.625690        -1.120821
