19
Iteration:   188charge 0 multiplicity 1
 C         1.783189         2.110936        -0.652789
 C         1.880575         0.948663         0.355614
 C         2.346479         1.023188         1.823074
 C         2.381565        -0.600968         1.800799
 O         3.295267        -1.248527         2.696692
 C         0.935338        -0.987127         1.714885
 C         1.084969        -0.487052         0.189374
 C         2.526858        -0.408315         0.150004
 O         3.464127        -0.837097        -0.793788
 H         1.062999         1.851438        -1.438047
 H         1.439706         2.937190        -0.007914
 H         2.747971         2.338408        -0.968640
 H         3.321257         1.374887         2.041822
 H         1.675276         1.462051         2.599173
 H         3.616647        -0.582579         3.317479
 H         0.783564        -2.010822         1.794843
 H         0.267824        -0.524570         2.305977
 H         0.302204        -0.507942        -0.746894
 H         4.135722        -1.149779        -0.172262
