19
Iteration:  2814
 C         1.885021         2.182979        -0.663988
 C         1.922892         1.038412         0.398326
 C         2.209407         1.008212         1.883070
 C         2.378326        -0.596341         1.831935
 O         3.352568        -1.314377         2.595462
 C         0.890019        -1.077724         1.625482
 C         1.030656        -0.330180         0.234584
 C         2.536543        -0.333474         0.181085
 O         3.512629        -0.929888        -0.657441
 H         2.434671         3.028988        -0.340129
 H         2.318564         1.818426        -1.617364
 H         0.838526         2.478574        -0.952285
 H         3.045369         1.569367         2.246410
 H         1.321452         1.308226         2.463218
 H         3.042891        -2.254842         2.557615
 H         0.736033        -2.102489         1.394216
 H         0.201543        -0.628392         2.400610
 H         0.313159        -0.434552        -0.623578
 H         4.447623        -0.563015        -0.665837
