19
Iteration:   720charge 0 multiplicity 1
 C         1.807280         1.990008        -0.729745
 C         1.808764         0.982392         0.411811
 C         2.372284         1.075808         1.867579
 C         2.432513        -0.468966         1.797374
 O         3.343714        -1.322664         2.531177
 C         1.011148        -1.047696         1.642447
 C         0.917476        -0.279665         0.332155
 C         2.415002        -0.357327         0.199749
 O         3.537820        -0.968961        -0.544998
 H         2.876355         2.211408        -0.888561
 H         1.355060         1.583471        -1.617070
 H         1.276254         2.905905        -0.482122
 H         3.384980         1.553036         1.877588
 H         1.634752         1.530425         2.646841
 H         4.317108        -1.343728         2.364026
 H         0.758313        -2.130247         1.400184
 H         0.353912        -0.588141         2.352493
 H         0.041067        -0.275972        -0.468113
 H         3.496026        -0.505940        -1.454728
