19
Iteration:  2908charge 0 multiplicity 1
 C         1.814707         2.180892        -0.481330
 C         1.862694         0.876334         0.465280
 C         2.325906         1.056758         1.914020
 C         2.443164        -0.508508         1.797747
 O         3.182202        -1.189557         2.747210
 C         0.923655        -1.061721         1.507061
 C         1.169512        -0.397938         0.099594
 C         2.654109        -0.464434         0.200090
 O         3.439966        -0.953355        -0.868645
 H         2.801358         2.360884        -0.969619
 H         1.024823         2.052311        -1.230127
 H         1.612750         3.094449         0.084056
 H         3.269282         1.670780         1.977302
 H         1.492720         1.398550         2.594757
 H         2.545196        -1.676324         3.279152
 H         0.962870        -2.191108         1.389632
 H         0.137406        -0.623880         2.132077
 H         0.366460        -0.428471        -0.688983
 H         4.282636        -0.537335        -0.904190
