19
Iteration:  2250
 C         1.926682         2.056969        -0.694181
 C         1.982918         0.969289         0.404750
 C         2.390598         0.935298         1.908432
 C         2.367615        -0.671931         1.845616
 O         3.291881        -1.305438         2.660687
 C         0.934257        -1.019378         1.694913
 C         0.935251        -0.191417         0.302330
 C         2.493706        -0.369753         0.181588
 O         3.366744        -0.804981        -0.808060
 H         2.497826         1.691570        -1.652807
 H         0.888766         2.329513        -1.001327
 H         2.519101         2.971069        -0.491754
 H         3.400801         1.369982         2.048864
 H         1.667317         1.320837         2.557502
 H         4.012043        -0.630945         2.574381
 H         0.756750        -2.020250         1.262702
 H         0.314411        -0.843502         2.546540
 H         0.268719        -0.117728        -0.615579
 H         3.530045        -1.796499        -0.832770
