19
Iteration:  2501charge 0 multiplicity 1
 C         1.858584         2.165515        -0.523143
 C         1.954716         0.906164         0.322443
 C         2.356073         0.874528         1.862891
 C         2.366062        -0.613048         1.904050
 O         3.130115        -1.202761         2.938941
 C         0.925979        -1.117576         1.530336
 C         1.111413        -0.317152         0.226243
 C         2.614771        -0.404465         0.112349
 O         3.423200        -0.744538        -0.979697
 H         1.962039         3.184889         0.034518
 H         2.683192         2.109423        -1.290299
 H         0.852671         2.274731        -1.029435
 H         3.412675         1.321280         1.715440
 H         1.817313         1.414567         2.699804
 H         3.907354        -0.686998         3.155062
 H         0.956371        -2.303049         1.440931
 H         0.136581        -0.987923         2.443246
 H         0.743957        -0.374272        -0.793025
 H         3.189549        -1.704581        -1.190978
