19
Iteration:  2138
 C         1.772491         2.169759        -0.594800
 C         2.043048         1.004026         0.401612
 C         2.524864         0.941664         1.882511
 C         2.405644        -0.583450         1.848982
 O         3.254562        -1.324199         2.810443
 C         0.917846        -0.993940         1.629955
 C         1.041410        -0.273939         0.209538
 C         2.457562        -0.387732         0.111286
 O         3.347004        -0.922597        -0.869961
 H         2.631085         2.868284        -0.731896
 H         1.654708         1.693133        -1.614178
 H         0.750353         2.546440        -0.206422
 H         3.641005         1.100586         1.879724
 H         1.996550         1.484722         2.601214
 H         4.002716        -0.748777         2.941653
 H         0.924724        -2.109064         1.561424
 H         0.142840        -0.583639         2.285938
 H         0.506693        -0.074160        -0.654249
 H         2.939850        -1.732401        -1.222595
