19
Iteration:  2538
 C         1.924819         2.114894        -0.486638
 C         1.866409         0.890803         0.395943
 C         2.301803         0.977637         1.874545
 C         2.448633        -0.491909         1.744141
 O         3.124170        -1.275899         2.669312
 C         0.952918        -1.066404         1.611455
 C         1.052348        -0.416647         0.192304
 C         2.557965        -0.406244         0.133271
 O         3.494266        -0.762141        -0.776292
 H         2.483015         2.892443        -0.041009
 H         2.304447         1.874131        -1.468857
 H         0.928155         2.429606        -0.697604
 H         3.345182         1.485513         1.965666
 H         1.653356         1.309973         2.739511
 H         3.706681        -0.614275         3.110929
 H         0.982615        -2.113201         1.535992
 H         0.281857        -0.629264         2.403861
 H         0.431266        -0.449387        -0.761134
 H         3.496942        -1.786003        -0.906594
