19
Iteration:  3587
 C         1.769852         2.143349        -0.503380
 C         1.902545         0.895290         0.312882
 C         2.397472         1.026826         1.791616
 C         2.385217        -0.521732         1.709243
 O         3.142476        -1.176030         2.670039
 C         0.945683        -0.982495         1.565071
 C         0.979361        -0.436763         0.165241
 C         2.508483        -0.509697         0.142303
 O         3.634029        -0.919347        -0.485615
 H         2.691310         2.623317        -0.589201
 H         1.386992         1.889654        -1.490058
 H         1.193093         2.911944        -0.035931
 H         3.451483         1.270446         1.848023
 H         1.768465         1.362166         2.632082
 H         4.016725        -1.306198         2.295427
 H         1.028591        -2.110659         1.503563
 H         0.298959        -0.575668         2.273398
 H         0.047767        -0.521421        -0.506199
 H         3.798287        -0.384615        -1.315044
