19
Iteration:  1018
 C         1.728956         2.169808        -0.440531
 C         1.981610         0.902534         0.354890
 C         2.569069         0.994271         1.763579
 C         2.447754        -0.460558         1.838976
 O         3.295455        -1.226802         2.693736
 C         0.941903        -0.816576         1.703796
 C         0.988892        -0.232632         0.319128
 C         2.504320        -0.595438         0.106969
 O         3.347960        -1.137661        -0.894508
 H         2.101768         2.177093        -1.535143
 H         0.637304         2.192325        -0.743625
 H         1.997247         3.128943         0.038730
 H         3.499364         1.449817         1.765584
 H         1.832292         1.415085         2.471742
 H         4.143470        -0.825699         2.826668
 H         0.823502        -1.864430         1.799020
 H         0.400184        -0.297602         2.488365
 H         0.192286        -0.304629        -0.498647
 H         2.903117        -1.771138        -1.409335
