19
Iteration:  3120charge 0 multiplicity 1
 C         1.907514         2.104899        -0.527367
 C         1.925041         0.882734         0.374101
 C         2.273501         0.899437         1.845904
 C         2.390279        -0.612478         1.823344
 O         3.282245        -1.222193         2.679053
 C         0.847541        -1.008110         1.563475
 C         1.032716        -0.364616         0.187925
 C         2.551286        -0.404368         0.185490
 O         3.503022        -0.750159        -0.763320
 H         2.858003         2.574228        -0.690207
 H         1.427698         1.727621        -1.460158
 H         1.235232         2.890399        -0.098366
 H         3.310758         1.246448         1.729476
 H         1.595847         1.328295         2.673639
 H         3.639984        -0.591714         3.332752
 H         0.680073        -2.003382         1.335396
 H         0.123969        -0.457260         2.269214
 H         0.400235        -0.425466        -0.756064
 H         3.802908        -1.685499        -0.670696
