19
Iteration:  1375charge 0 multiplicity 1
 C         1.843422         2.204840        -0.402772
 C         1.992628         0.902015         0.337343
 C         2.467500         0.956241         1.805163
 C         2.408567        -0.523250         1.768547
 O         3.290545        -1.147632         2.685310
 C         0.990974        -0.899411         1.704706
 C         0.978287        -0.299825         0.309144
 C         2.498646        -0.471753         0.052644
 O         3.303392        -1.120962        -0.948203
 H         2.689016         2.355761        -1.075377
 H         0.871588         2.221246        -0.926414
 H         1.666732         2.928456         0.376428
 H         3.553575         1.132687         2.080843
 H         1.739901         1.455584         2.442577
 H         4.017657        -0.476943         2.868133
 H         0.785150        -1.967304         1.925785
 H         0.510370        -0.409958         2.539227
 H         0.029439        -0.291099        -0.260062
 H         3.243721        -2.067563        -0.923379
