19
Iteration:  3671
 C         1.876019         2.164962        -0.653673
 C         1.993527         0.946421         0.352744
 C         2.189884         0.970565         1.894802
 C         2.361742        -0.547561         1.864308
 O         3.315108        -1.164903         2.774194
 C         0.983271        -1.130041         1.528529
 C         1.021290        -0.265977         0.201173
 C         2.537822        -0.439775         0.153981
 O         3.470505        -0.845518        -0.736576
 H         2.795020         2.879183        -0.499789
 H         1.968097         1.755445        -1.700985
 H         0.899047         2.760069        -0.638712
 H         3.120519         1.523254         2.073160
 H         1.474124         1.369819         2.613124
 H         2.982501        -1.999368         3.183952
 H         1.113180        -2.179910         1.343862
 H         0.144271        -1.211400         2.290054
 H         0.369747        -0.320643        -0.745693
 H         3.777581        -1.764762        -0.865922
