19
Iteration:  3125
 C         1.900750         2.107202        -0.520070
 C         1.901344         0.905073         0.324554
 C         2.288601         0.902060         1.810366
 C         2.366218        -0.607068         1.824722
 O         3.321096        -1.241555         2.642931
 C         0.854090        -1.005545         1.539452
 C         1.047887        -0.411573         0.196841
 C         2.531618        -0.362066         0.233596
 O         3.486045        -0.740163        -0.700650
 H         2.963890         2.451358        -0.747437
 H         1.524734         1.786201        -1.486565
 H         1.400687         2.938910        -0.030459
 H         3.317657         1.315687         1.796576
 H         1.702992         1.430023         2.520960
 H         3.533587        -0.681520         3.409034
 H         0.523144        -2.118750         1.364748
 H         0.106408        -0.594669         2.166915
 H         0.318347        -0.459905        -0.564083
 H         3.781327        -1.679448        -0.668820
