19
Iteration:  1300charge 0 multiplicity 1
 C         1.844202         1.844894        -0.828798
 C         2.020698         0.944322         0.445122
 C         2.395124         0.960618         1.978200
 C         2.507462        -0.537159         1.809205
 O         3.258988        -1.381349         2.581323
 C         1.011465        -0.830823         1.735183
 C         0.991185        -0.203039         0.370717
 C         2.433731        -0.412359         0.208002
 O         3.316813        -0.723934        -0.819770
 H         1.687318         1.139319        -1.680438
 H         0.885844         2.337491        -0.586907
 H         2.711682         2.519840        -0.921229
 H         3.445636         1.477185         2.050189
 H         1.717213         1.206905         2.725372
 H         4.181381        -1.172191         2.510307
 H         0.684904        -1.883920         1.815865
 H         0.493177        -0.275876         2.512594
 H         0.194818        -0.198390        -0.351968
 H         3.108925        -1.641564        -1.116348
