19
Iteration:  4817charge 0 multiplicity 1
 C         1.959129         2.047300        -0.549876
 C         1.879959         0.970821         0.394073
 C         2.042114         1.097287         1.922643
 C         2.379931        -0.539440         1.853901
 O         3.316477        -1.330527         2.616657
 C         0.965472        -1.076328         1.599340
 C         1.097541        -0.358890         0.210779
 C         2.611981        -0.345825         0.227911
 O         3.470036        -0.848921        -0.785766
 H         1.128357         2.774274        -0.364587
 H         2.891836         2.607558        -0.467213
 H         1.959937         1.589928        -1.532472
 H         2.757693         1.758023         2.420159
 H         1.036449         1.422838         2.434794
 H         3.284445        -2.063083         1.959447
 H         0.966944        -2.224977         1.425976
 H         0.090066        -0.731607         2.238305
 H         0.590049        -0.616708        -0.747100
 H         4.250833        -0.169442        -0.809104
