19
Iteration:   690charge 0 multiplicity 1
 C         1.725473         2.025464        -0.628363
 C         1.937865         0.941903         0.344125
 C         2.434679         0.985399         1.765698
 C         2.421911        -0.497729         1.832252
 O         3.242206        -1.270584         2.574512
 C         0.940950        -1.009840         1.688807
 C         1.016030        -0.397213         0.263617
 C         2.490287        -0.445540         0.217641
 O         3.505502        -0.877945        -0.601395
 H         2.535117         2.097892        -1.391749
 H         0.794573         2.012313        -1.253260
 H         1.651239         2.961396        -0.165267
 H         3.525549         1.360222         1.870208
 H         1.896273         1.588269         2.469673
 H         4.092319        -0.856220         2.692148
 H         0.688096        -2.098759         1.627376
 H         0.297594        -0.285529         2.385455
 H         0.227975        -0.387958        -0.538996
 H         3.493636        -0.242002        -1.309751
