19
Iteration:  3351
 C         1.928181         1.962142        -0.566473
 C         1.825304         0.823294         0.321652
 C         2.393315         1.046286         1.830016
 C         2.318119        -0.489987         1.769430
 O         3.295679        -1.328536         2.436335
 C         0.757430        -0.902178         1.677549
 C         0.962091        -0.418562         0.157130
 C         2.479056        -0.382047         0.266949
 O         3.684625        -0.751933        -0.407459
 H         2.515811         2.665347         0.048830
 H         2.101622         1.771077        -1.605270
 H         0.955226         2.527371        -0.660948
 H         3.464353         1.319663         1.638901
 H         1.982365         1.631507         2.668040
 H         3.961172        -1.415772         1.699481
 H         0.691693        -1.920517         1.541647
 H        -0.048891        -0.425734         2.389547
 H         0.180322        -0.393010        -0.626971
 H         3.325504        -1.125615        -1.264511
