19
Iteration:  4037charge 0 multiplicity 1
 C         1.799310         2.249984        -0.506240
 C         2.008549         0.931447         0.351321
 C         2.165899         0.964734         1.854268
 C         2.359804        -0.567436         1.807275
 O         3.089489        -1.205785         2.796233
 C         1.015342        -1.272105         1.432691
 C         1.112129        -0.446050         0.135635
 C         2.615303        -0.351909         0.171756
 O         3.608455        -0.760221        -0.691048
 H         2.760694         2.634716        -0.738430
 H         1.274828         2.187679        -1.450323
 H         1.291798         2.918285         0.090589
 H         3.134307         1.507478         2.159615
 H         1.401060         1.293886         2.571347
 H         3.681846        -0.462996         2.981204
 H         1.110819        -2.368795         1.075273
 H         0.187195        -1.195474         2.061923
 H         0.447844        -0.465793        -0.661075
 H         3.401391        -1.679127        -0.975683
