19
Iteration:   437charge 0 multiplicity 1
 C         1.830154         2.127124        -0.504100
 C         1.805328         0.853829         0.307786
 C         2.201035         1.011659         1.738736
 C         2.449148        -0.530050         1.852281
 O         3.306017        -1.060077         2.800113
 C         0.965509        -1.144991         1.505127
 C         1.018269        -0.407032         0.196260
 C         2.508523        -0.514534         0.153681
 O         3.509580        -0.873359        -0.727884
 H         1.673685         3.103086         0.129933
 H         2.751779         2.264403        -1.188206
 H         0.952456         2.302397        -1.174971
 H         3.162754         1.640283         2.002748
 H         1.300853         1.169083         2.421126
 H         4.234673        -0.721138         2.835260
 H         1.129274        -2.171875         1.273597
 H         0.293929        -0.989208         2.250658
 H         0.475054        -0.691577        -0.610579
 H         4.405165        -0.710129        -0.338555
