19
Iteration:  3631charge 0 multiplicity 1
 C         1.773229         2.125740        -0.573924
 C         1.903253         0.973750         0.417752
 C         2.276647         0.954454         1.937682
 C         2.456350        -0.522318         1.872225
 O         3.107160        -1.158284         2.900223
 C         1.022114        -0.996149         1.473935
 C         1.195346        -0.417518         0.095261
 C         2.620629        -0.414775         0.201750
 O         3.498281        -0.924645        -0.828432
 H         2.646120         2.602577        -0.888085
 H         1.275060         1.648612        -1.428550
 H         1.154757         2.947217        -0.249490
 H         3.206058         1.514344         1.956172
 H         1.461953         1.330243         2.525604
 H         3.681234        -1.791340         2.454906
 H         1.084218        -2.145575         1.528209
 H         0.192689        -0.566324         1.969293
 H         0.588917        -0.419935        -0.842432
 H         2.828692        -1.211888        -1.501893
