19
Iteration:  1663charge 0 multiplicity 1
 C         1.890959         1.989340        -0.724402
 C         1.983817         0.990604         0.482502
 C         2.534166         0.954317         1.836566
 C         2.498082        -0.618316         1.741785
 O         3.289584        -1.460138         2.488576
 C         0.934485        -0.801149         1.771174
 C         0.968962        -0.161885         0.517770
 C         2.390675        -0.387651         0.170801
 O         3.216251        -0.834574        -0.837633
 H         1.142080         2.696551        -0.475888
 H         2.843488         2.360479        -0.982217
 H         1.588310         1.331868        -1.528414
 H         3.553068         1.442000         1.901488
 H         1.908911         1.478810         2.534807
 H         4.159084        -1.053880         2.618623
 H         0.778964        -1.873751         1.808209
 H         0.556833        -0.295930         2.716245
 H         0.127108        -0.189140        -0.196122
 H         3.596097        -1.750292        -0.619730
