19
Iteration:   568charge 0 multiplicity 1
 C         1.856158         2.077471        -0.627560
 C         1.879316         0.915123         0.351170
 C         2.167762         1.105132         1.861154
 C         2.393803        -0.536297         1.835216
 O         3.362321        -1.198857         2.628182
 C         0.982103        -1.042883         1.637095
 C         1.018912        -0.445123         0.187892
 C         2.556318        -0.469824         0.194085
 O         3.453385        -0.954949        -0.717488
 H         0.901036         2.387541        -1.132124
 H         1.940476         2.953441         0.073647
 H         2.671967         2.218191        -1.315034
 H         3.096177         1.732018         2.041875
 H         1.469499         1.466165         2.523258
 H         3.915091        -0.681391         3.231253
 H         0.900439        -2.169163         1.470333
 H         0.200716        -0.847754         2.457811
 H         0.226337        -0.604815        -0.525711
 H         4.145718        -0.234611        -0.915679
