19
Iteration:  4001charge 0 multiplicity 1
 C         1.855072         2.131908        -0.472641
 C         1.850645         0.954440         0.369733
 C         2.057341         0.931143         1.895744
 C         2.452821        -0.606664         1.759560
 O         3.200078        -1.113313         2.826839
 C         1.053351        -1.180505         1.355446
 C         1.248828        -0.376027         0.123536
 C         2.741689        -0.312288         0.237946
 O         3.470952        -0.844185        -0.768314
 H         2.814487         2.565921        -0.411350
 H         1.498852         2.076993        -1.477151
 H         1.304141         2.848047         0.090985
 H         2.887914         1.648343         2.021767
 H         1.104453         1.189433         2.515474
 H         2.715808        -1.236038         3.648613
 H         1.045224        -2.278837         1.097301
 H         0.162401        -0.947343         1.977587
 H         0.576870        -0.479588        -0.816529
 H         2.823280        -1.549443        -1.061143
