19
Iteration:   645
 C         1.703599         2.120775        -0.590358
 C         1.965444         0.887417         0.365833
 C         2.314182         1.050814         1.830676
 C         2.452753        -0.564408         1.715915
 O         3.144946        -1.178895         2.810663
 C         1.055756        -1.021766         1.647660
 C         1.111382        -0.416304         0.300657
 C         2.603756        -0.441871         0.141845
 O         3.376397        -0.966548        -0.852393
 H         2.019242         1.895175        -1.648922
 H         0.671422         2.473601        -0.560994
 H         2.258957         2.898575        -0.162127
 H         3.368490         1.479987         1.971938
 H         1.632512         1.514330         2.491143
 H         4.017109        -0.828676         3.003910
 H         1.160193        -2.165897         1.616557
 H         0.322553        -0.385419         2.332082
 H         0.365298        -0.529828        -0.617663
 H         4.123770        -0.396720        -0.951843
