19
Iteration:  4118
 C         1.843206         1.962731        -0.752830
 C         1.794675         0.993994         0.479782
 C         2.244971         1.019487         1.977048
 C         2.370273        -0.572192         1.819912
 O         3.297630        -1.353014         2.576558
 C         0.967213        -1.127905         1.435127
 C         0.941145        -0.320340         0.138894
 C         2.560372        -0.373283         0.247525
 O         3.729879        -0.583652        -0.471516
 H         2.197657         3.048695        -0.486090
 H         2.341869         1.676551        -1.687247
 H         0.795385         2.376634        -1.104163
 H         3.232096         1.360157         2.078076
 H         1.534337         1.491215         2.617109
 H         2.790476        -2.170784         2.724781
 H         1.017879        -2.126131         1.211499
 H         0.048716        -0.959777         2.118052
 H         0.086605        -0.221324        -0.661699
 H         3.639488        -1.450832        -0.870388
