19
Iteration:   924charge 0 multiplicity 1
 C         1.985391         2.016094        -0.777592
 C         1.800716         0.966717         0.402825
 C         2.444284         1.029283         1.876287
 C         2.401089        -0.567492         1.867411
 O         3.412447        -1.281768         2.467391
 C         0.949279        -0.927772         1.807830
 C         0.889184        -0.327860         0.397847
 C         2.425484        -0.536277         0.204394
 O         3.376382        -0.826382        -0.762101
 H         1.286864         1.845251        -1.533533
 H         1.690684         2.973028        -0.388249
 H         3.044581         1.929276        -1.000303
 H         3.596610         1.430528         1.923680
 H         1.839598         1.528137         2.715046
 H         4.069942        -0.591271         2.809701
 H         0.545673        -1.978895         1.853221
 H         0.197954        -0.318754         2.458250
 H         0.112730        -0.292196        -0.386238
 H         3.020226        -1.615210        -1.332345
