19
Iteration:  2599
 C         1.789912         2.032382        -0.601910
 C         1.831371         0.983669         0.451686
 C         2.284876         0.953550         1.872963
 C         2.313334        -0.471051         1.775371
 O         3.239533        -1.261499         2.503294
 C         0.904482        -1.091130         1.538401
 C         1.037037        -0.259684         0.252856
 C         2.584245        -0.348283         0.219377
 O         3.708240        -0.842321        -0.488327
 H         2.875100         2.126774        -1.090403
 H         1.122568         1.664703        -1.456571
 H         1.408430         3.056342        -0.316045
 H         3.292044         1.238191         2.134819
 H         1.676833         1.360123         2.675430
 H         3.726835        -1.718002         1.799567
 H         0.847412        -2.185400         1.132759
 H        -0.022851        -0.812921         2.104889
 H         0.205402        -0.021373        -0.456494
 H         3.539529        -1.616079        -1.103935
