19
Iteration:  2196charge 0 multiplicity 1
 C         1.950180         2.232200        -0.663464
 C         1.889524         0.981638         0.307834
 C         2.344909         1.035762         1.835587
 C         2.406925        -0.531287         1.840181
 O         3.297319        -1.434045         2.416979
 C         0.897780        -0.953761         1.738389
 C         0.955958        -0.481052         0.375243
 C         2.492299        -0.401536         0.288378
 O         3.405521        -0.840829        -0.624633
 H         2.948762         2.236722        -1.282897
 H         1.115723         2.395648        -1.371815
 H         2.103257         3.215819        -0.188039
 H         3.358824         1.449152         1.710058
 H         1.920565         1.591010         2.597714
 H         4.271465        -1.174979         2.428977
 H         0.649227        -2.026990         1.772504
 H         0.166385        -0.429214         2.297241
 H         0.418986        -0.650966        -0.628555
 H         3.314352        -1.781835        -0.920374
