19
Iteration:  2121
 C         1.818493         2.124431        -0.518015
 C         2.014224         0.965387         0.357909
 C         2.502965         1.009279         1.811617
 C         2.455510        -0.555099         1.880422
 O         3.176436        -1.323802         2.750730
 C         1.023796        -0.944712         1.614232
 C         1.042562        -0.356494         0.253862
 C         2.571105        -0.407591         0.140745
 O         3.268224        -0.920986        -0.909793
 H         2.442958         2.952055        -0.135259
 H         2.123874         2.033937        -1.542105
 H         0.830900         2.462978        -0.560215
 H         3.500589         1.455335         1.854343
 H         1.907540         1.575772         2.654628
 H         3.624505        -0.863300         3.450928
 H         0.900130        -2.028768         1.536121
 H         0.299879        -0.588261         2.383252
 H         0.151565        -0.566706        -0.435953
 H         2.732042        -1.528990        -1.400913
