19
Iteration:  2741charge 0 multiplicity 1
 C         1.820385         2.105024        -0.538823
 C         1.957262         0.914209         0.375020
 C         2.234312         0.954797         1.885582
 C         2.435899        -0.644080         1.755794
 O         3.249495        -1.214662         2.691755
 C         0.891331        -0.943112         1.597181
 C         1.060873        -0.291541         0.197722
 C         2.554737        -0.431266         0.171673
 O         3.559129        -0.769629        -0.738243
 H         2.420869         3.003558        -0.328537
 H         2.158517         1.673399        -1.484431
 H         0.807567         2.309833        -0.794455
 H         3.134343         1.559536         2.138056
 H         1.430853         1.297977         2.585196
 H         3.233580        -2.185818         2.589489
 H         0.854017        -2.082662         1.495303
 H         0.233175        -0.553773         2.311023
 H         0.414164        -0.448249        -0.680608
 H         3.696071        -1.765067        -0.661807
