19
Iteration:  1376charge 0 multiplicity 1
 C         1.835988         2.197525        -0.398765
 C         1.996394         0.905213         0.338847
 C         2.459984         0.965099         1.807880
 C         2.401164        -0.523840         1.775375
 O         3.298740        -1.151800         2.683937
 C         0.989142        -0.890721         1.701146
 C         0.983405        -0.293867         0.306936
 C         2.501146        -0.484695         0.062225
 O         3.304621        -1.124086        -0.954915
 H         2.697232         2.371220        -1.062599
 H         0.877188         2.274485        -0.966785
 H         1.637016         2.953013         0.355147
 H         3.568416         1.140877         2.110000
 H         1.749417         1.454375         2.439835
 H         4.003748        -0.479677         2.851008
 H         0.808915        -1.944785         1.902651
 H         0.547399        -0.455451         2.507791
 H        -0.009465        -0.281912        -0.276623
 H         3.230232        -2.105327        -0.909176
