19
Iteration:   667
 C         1.723454         2.108524        -0.558979
 C         1.828044         0.863855         0.319807
 C         2.412114         1.045199         1.786280
 C         2.435605        -0.525504         1.823166
 O         3.277031        -1.328689         2.785673
 C         0.941442        -0.884550         1.684188
 C         1.028353        -0.436420         0.205195
 C         2.561962        -0.446225         0.166902
 O         3.511232        -0.960401        -0.778907
 H         2.243909         2.010113        -1.544875
 H         0.681193         2.189222        -0.885856
 H         1.880027         3.027728        -0.110426
 H         3.310289         1.763867         1.644999
 H         1.793862         1.467845         2.573697
 H         4.027007        -0.713223         3.011615
 H         0.814647        -2.010094         1.481445
 H         0.234639        -0.216969         2.400674
 H         0.303149        -0.507883        -0.747885
 H         3.701534        -0.088740        -1.289847
