19
Iteration:  1417
 C         1.761459         2.164928        -0.656040
 C         1.998009         1.014113         0.388281
 C         2.487201         1.029494         1.862783
 C         2.460067        -0.565648         1.796801
 O         3.297857        -1.335582         2.587735
 C         1.095326        -0.939281         1.695870
 C         0.997820        -0.307751         0.283794
 C         2.510530        -0.322259         0.217120
 O         3.191524        -1.058770        -0.756685
 H         2.678701         2.696895        -0.381530
 H         1.840350         1.801623        -1.672921
 H         0.907889         2.764898        -0.325297
 H         3.508156         1.337758         1.795722
 H         1.910047         1.557636         2.670509
 H         4.198235        -0.922918         2.493632
 H         0.944126        -2.071958         1.556347
 H         0.302508        -0.565372         2.543548
 H         0.302040        -0.339010        -0.540334
 H         2.621053        -1.822154        -0.747960
