19
Iteration:  4136charge 0 multiplicity 1
 C         1.858992         2.032780        -0.606983
 C         1.860726         0.971131         0.445495
 C         2.189919         0.922984         1.959818
 C         2.349975        -0.591205         1.768666
 O         3.247128        -1.219261         2.611324
 C         0.949519        -1.167191         1.463599
 C         1.056610        -0.325033         0.164865
 C         2.575489        -0.299627         0.172433
 O         3.638572        -0.642120        -0.620780
 H         2.300945         2.947828        -0.291847
 H         2.572024         1.632541        -1.329828
 H         0.952279         2.147962        -1.095462
 H         3.248908         1.382119         2.067187
 H         1.437037         1.289083         2.756032
 H         2.770728        -1.621957         3.360234
 H         1.058977        -2.324037         1.219480
 H         0.125565        -1.116971         2.153805
 H         0.360422        -0.448813        -0.711554
 H         3.686101        -1.597775        -0.637947
