19
Iteration:  3489
 C         1.887658         2.165474        -0.542504
 C         1.934460         0.888068         0.316356
 C         2.395199         0.945580         1.786794
 C         2.400450        -0.522265         1.878065
 O         3.177236        -1.163838         2.886245
 C         0.945175        -1.069175         1.584767
 C         1.059707        -0.485821         0.158377
 C         2.527213        -0.452631         0.198980
 O         3.350973        -0.790009        -0.900160
 H         2.704633         2.766086        -0.276339
 H         2.020832         1.771561        -1.565624
 H         0.988902         2.752099        -0.596783
 H         3.421256         1.367762         1.748535
 H         1.708493         1.535577         2.511169
 H         3.654180        -0.460385         3.325736
 H         1.222864        -2.190017         1.555704
 H         0.072039        -0.991840         2.190871
 H         0.522879        -0.680245        -0.829960
 H         4.193804        -1.223830        -0.656674
