19
Iteration:  3977
 C         1.828351         2.180298        -0.537350
 C         2.020594         0.990850         0.370931
 C         2.069013         0.928221         1.934203
 C         2.319725        -0.561187         1.852405
 O         3.248473        -1.130935         2.762287
 C         0.981057        -1.155073         1.476725
 C         1.140403        -0.417397         0.107777
 C         2.620524        -0.435584         0.212078
 O         3.591532        -0.759492        -0.775729
 H         2.713603         2.861289        -0.431898
 H         1.888850         1.786587        -1.557348
 H         0.933885         2.850699        -0.338447
 H         2.969574         1.450132         2.173341
 H         1.156727         1.350984         2.497249
 H         3.077074        -2.042179         3.080764
 H         0.961103        -2.192456         1.289157
 H         0.041722        -0.888684         2.135794
 H         0.570442        -0.658671        -0.869984
 H         3.275728        -1.603286        -1.007681
