19
Iteration:  2176charge 0 multiplicity 1
 C         1.888373         2.091339        -0.572110
 C         1.951571         0.984191         0.397628
 C         2.407063         1.088593         1.815166
 C         2.446706        -0.525931         1.788176
 O         3.225394        -1.403145         2.603747
 C         0.971209        -0.942865         1.726892
 C         0.942724        -0.335160         0.230217
 C         2.460741        -0.415309         0.131947
 O         3.423130        -0.885001        -0.738652
 H         2.826647         2.418035        -1.077310
 H         1.036517         2.031871        -1.236661
 H         1.748382         2.977532        -0.016892
 H         3.378508         1.481826         2.062463
 H         1.600227         1.430804         2.568446
 H         4.137275        -1.401926         2.215798
 H         1.033655        -2.012433         1.834251
 H         0.327360        -0.527334         2.526682
 H         0.054288        -0.297751        -0.535720
 H         3.428100        -1.815031        -0.647354
