19
Iteration:   524charge 0 multiplicity 1
 C         1.729476         2.044415        -0.722058
 C         1.852499         0.900335         0.327276
 C         2.364164         0.997892         1.932349
 C         2.411014        -0.509115         1.792542
 O         3.223817        -1.235706         2.602998
 C         0.968667        -1.074575         1.616978
 C         0.944006        -0.418094         0.205472
 C         2.503951        -0.461097         0.180465
 O         3.634859        -0.814750        -0.565132
 H         0.610241         2.370729        -0.668665
 H         2.436502         2.878163        -0.417101
 H         1.983167         1.614629        -1.698560
 H         3.454984         1.453544         1.993366
 H         1.835406         1.475498         2.719271
 H         4.086917        -0.770819         2.670798
 H         0.860916        -2.203874         1.859340
 H         0.291842        -0.450871         2.303504
 H         0.249103        -0.349225        -0.552152
 H         3.936652         0.037004        -1.055349
