19
Iteration:  2840charge 0 multiplicity 1
 C         1.863973         2.068490        -0.498397
 C         2.014173         0.915716         0.437816
 C         2.219625         0.951327         1.945712
 C         2.379424        -0.558982         1.856618
 O         3.252632        -1.120708         2.706074
 C         0.919793        -0.975536         1.434026
 C         1.101641        -0.350959         0.140373
 C         2.636761        -0.408979         0.268171
 O         3.365975        -0.933632        -0.797073
 H         2.562565         2.921563        -0.381065
 H         1.888305         1.695349        -1.488329
 H         0.922063         2.496651        -0.313422
 H         3.208157         1.494032         2.042971
 H         1.460328         1.251712         2.706007
 H         3.482266        -1.993063         2.288961
 H         0.746897        -2.085776         1.120946
 H         0.245547        -0.567804         2.136287
 H         0.512792        -0.459580        -0.728100
 H         4.218495        -0.558898        -1.178774
