19
Iteration:  4619
 C         1.885018         2.092750        -0.525665
 C         1.910635         0.900102         0.388895
 C         2.215190         0.977616         1.882983
 C         2.414159        -0.514642         1.854922
 O         3.203356        -1.369853         2.617489
 C         0.889696        -0.923680         1.620120
 C         1.051060        -0.458869         0.179639
 C         2.572956        -0.462057         0.139510
 O         3.604587        -0.686891        -0.692996
 H         0.916029         2.289734        -1.108390
 H         2.133016         3.001542         0.052458
 H         2.566527         1.972764        -1.369685
 H         3.140876         1.645769         2.043602
 H         1.290893         1.269206         2.453707
 H         4.087782        -1.103109         2.322941
 H         0.788852        -2.068456         1.736194
 H         0.126975        -0.478184         2.260395
 H         0.253492        -0.574093        -0.582255
 H         3.281174        -1.367053        -1.326085
