19
Iteration:     5charge 0 multiplicity 1
 C         1.796004         2.032803        -0.623809
 C         1.910660         0.921617         0.368503
 C         2.305836         1.017470         1.863979
 C         2.380114        -0.533473         1.805078
 O         3.353873        -1.222871         2.575922
 C         0.958234        -1.040599         1.629939
 C         1.096748        -0.378207         0.241298
 C         2.551134        -0.396008         0.199582
 O         3.470149        -0.800545        -0.698636
 H         1.620557         1.652704        -1.638776
 H         0.908302         2.673570        -0.513690
 H         2.574479         2.768658        -0.698250
 H         3.171047         1.661770         1.930480
 H         1.492126         1.405449         2.556409
 H         3.008782        -1.059210         3.494556
 H         0.768928        -2.120774         1.633267
 H         0.215166        -0.697664         2.417465
 H         0.359728        -0.587962        -0.587757
 H         3.496153        -1.785021        -0.696163
