19
Iteration:   968charge 0 multiplicity 1
 C         1.774991         2.091712        -0.689941
 C         1.949322         0.999159         0.421159
 C         2.503481         1.085178         1.877735
 C         2.458155        -0.545979         1.818180
 O         3.279196        -1.312183         2.739894
 C         1.029375        -0.923348         1.727336
 C         1.021602        -0.268412         0.333870
 C         2.494726        -0.468559         0.144548
 O         3.203098        -0.977068        -0.929048
 H         1.908408         1.736494        -1.667782
 H         0.881360         2.695861        -0.744479
 H         2.615012         2.803256        -0.614886
 H         3.658085         1.347866         1.736425
 H         1.961189         1.627643         2.709751
 H         4.250235        -1.080989         2.861195
 H         0.967052        -2.034876         1.502205
 H         0.322020        -0.719650         2.596601
 H         0.285736        -0.398671        -0.400645
 H         3.414992        -1.970463        -0.793553
