19
Iteration:  3714charge 0 multiplicity 1
 C         1.930182         2.025554        -0.569045
 C         1.766122         0.879602         0.373823
 C         2.264317         1.045039         1.848502
 C         2.334242        -0.478071         1.821501
 O         3.278935        -1.325098         2.442165
 C         0.885011        -0.943675         1.674380
 C         1.020520        -0.454304         0.116303
 C         2.515674        -0.511871         0.247396
 O         3.636026        -0.683962        -0.610535
 H         2.616423         2.726239        -0.009355
 H         2.452310         1.948936        -1.512889
 H         0.928017         2.448806        -0.765332
 H         3.242981         1.491883         1.981522
 H         1.709298         1.686673         2.608410
 H         3.391936        -1.090083         3.405525
 H         0.790585        -1.999753         1.678312
 H         0.028834        -0.487813         2.304801
 H         0.417946        -0.648258        -0.848359
 H         3.961632        -1.662176        -0.557490
