19
Iteration:  4200
 C         1.810415         2.230384        -0.368099
 C         1.908434         0.916931         0.385233
 C         2.156267         0.853510         1.835622
 C         2.426011        -0.605144         1.722764
 O         2.986379        -1.074153         2.902388
 C         1.085215        -1.215459         1.474183
 C         1.171268        -0.396134         0.083599
 C         2.684988        -0.414416         0.141897
 O         3.560231        -0.760956        -0.796914
 H         2.656227         2.829268        -0.072878
 H         1.946711         2.057246        -1.494376
 H         0.829842         2.729007        -0.135550
 H         3.126420         1.407229         2.024875
 H         1.405439         1.230315         2.532865
 H         3.961837        -0.961981         2.831465
 H         1.150054        -2.339196         1.091373
 H         0.292434        -0.985999         2.139221
 H         0.533431        -0.560581        -0.850339
 H         3.210356        -1.456977        -1.296343
