19
Iteration:  3640
 C         1.783991         2.035736        -0.563733
 C         1.966471         0.957579         0.419088
 C         2.218865         1.002838         1.970182
 C         2.441279        -0.509428         1.822108
 O         3.099600        -1.153286         2.850437
 C         1.021811        -1.064018         1.507440
 C         1.202517        -0.385976         0.109304
 C         2.702940        -0.289029         0.140701
 O         3.405047        -0.906131        -0.800238
 H         2.811642         2.444417        -0.797745
 H         1.460626         1.664817        -1.582747
 H         1.081418         2.834263        -0.190935
 H         3.147151         1.550960         2.025132
 H         1.523765         1.362818         2.675832
 H         3.516849        -1.975203         2.560227
 H         1.147908        -2.191064         1.524279
 H         0.276571        -0.642023         2.163390
 H         0.774014        -0.439696        -0.971297
 H         2.903576        -1.605060        -1.306240
