19
Iteration:  4934charge 0 multiplicity 1
 C         1.742119         2.076732        -0.489662
 C         1.974350         0.922284         0.456809
 C         2.284145         1.010831         1.948139
 C         2.376740        -0.558997         1.820834
 O         3.117922        -1.400729         2.645975
 C         0.931269        -0.956926         1.518599
 C         1.096569        -0.280539         0.158619
 C         2.662065        -0.428899         0.182725
 O         3.526325        -0.862118        -0.834086
 H         0.708580         2.524277        -0.310495
 H         2.459758         2.952202        -0.380033
 H         1.860811         1.860391        -1.568178
 H         3.357414         1.509762         1.925281
 H         1.658151         1.539058         2.638792
 H         3.656924        -0.814014         3.240099
 H         0.806650        -2.045617         1.304210
 H         0.163857        -0.612015         2.165328
 H         0.472721        -0.442437        -0.752815
 H         4.507442        -0.676604        -0.655136
