19
Iteration:  3568charge 0 multiplicity 1
 C         1.787209         2.104622        -0.634734
 C         1.751009         0.974935         0.345614
 C         2.345918         1.040747         1.857221
 C         2.386211        -0.457435         1.840102
 O         3.276834        -1.357803         2.501688
 C         0.879356        -0.998576         1.601854
 C         1.020348        -0.396464         0.137955
 C         2.546078        -0.359109         0.236007
 O         3.598753        -1.005515        -0.442718
 H         2.764213         2.649669        -0.632351
 H         1.567263         1.827236        -1.687828
 H         1.003352         2.768392        -0.258825
 H         3.339663         1.536635         1.697847
 H         1.717193         1.559356         2.673319
 H         4.174082        -1.043254         2.377791
 H         0.847720        -2.094723         1.594165
 H         0.121116        -0.431011         2.178672
 H         0.536131        -0.522402        -0.804464
 H         4.093511        -0.340450        -0.926553
