19
Iteration:  3164
 C         1.957681         2.030336        -0.636781
 C         1.819417         0.929207         0.377916
 C         2.193322         1.048204         1.848343
 C         2.338385        -0.482467         1.775273
 O         3.310918        -1.291163         2.350599
 C         0.982907        -1.045334         1.612480
 C         0.951190        -0.344878         0.284146
 C         2.546753        -0.332342         0.237618
 O         3.641051        -0.795850        -0.467947
 H         2.960362         1.964144        -1.009875
 H         1.193787         1.997082        -1.432729
 H         1.862991         3.072540        -0.247379
 H         3.212837         1.466809         2.016181
 H         1.336554         1.381706         2.570898
 H         2.783615        -1.946624         2.828653
 H         1.160030        -2.051035         1.440250
 H         0.188619        -0.777465         2.422835
 H         0.032297        -0.584933        -0.314962
 H         3.344562        -1.735630        -0.633373
