19
Iteration:  3718
 C         1.942584         2.029570        -0.608009
 C         1.802885         0.892366         0.378905
 C         2.265016         1.078843         1.880175
 C         2.376973        -0.503732         1.851337
 O         3.267661        -1.365098         2.445007
 C         0.881634        -0.924371         1.656540
 C         0.959951        -0.482054         0.123753
 C         2.528765        -0.481619         0.240359
 O         3.632095        -0.682200        -0.583213
 H         2.478071         2.848823        -0.044578
 H         2.411371         1.938700        -1.662794
 H         0.889733         2.461077        -0.708950
 H         3.267825         1.502355         1.895185
 H         1.512986         1.634668         2.407611
 H         3.560476        -1.082156         3.314854
 H         0.736989        -2.055184         1.696238
 H         0.051875        -0.575429         2.182388
 H         0.402014        -0.670070        -0.755419
 H         3.972595        -1.538171        -0.639730
