19
Iteration:  4517charge 0 multiplicity 1
 C         1.929696         2.179180        -0.367188
 C         1.881091         0.920946         0.373257
 C         2.184108         1.007597         1.806240
 C         2.428289        -0.575492         1.788575
 O         3.220957        -1.206949         2.715886
 C         0.930970        -1.121143         1.546864
 C         1.036634        -0.516509         0.088210
 C         2.512860        -0.379279         0.134652
 O         3.577944        -0.769236        -0.690705
 H         1.358463         2.973983         0.050826
 H         2.913491         2.615462        -0.568563
 H         1.560529         2.098983        -1.381362
 H         3.155372         1.569449         2.106646
 H         1.409515         1.343531         2.568357
 H         4.130170        -0.974887         2.427136
 H         0.814739        -2.244222         1.499388
 H         0.053188        -0.687204         2.087118
 H         0.463729        -0.639512        -0.777087
 H         3.287793        -1.603222        -1.104537
