19
Iteration:   406
 C         1.827410         2.149610        -0.618072
 C         1.814620         0.940650         0.421394
 C         2.184804         1.007270         1.821533
 C         2.409850        -0.469746         1.790262
 O         3.274125        -1.088691         2.621876
 C         0.974010        -1.230248         1.563530
 C         1.167191        -0.511671         0.203434
 C         2.614356        -0.345172         0.237706
 O         3.420439        -0.961395        -0.718671
 H         1.804775         3.078220         0.035032
 H         2.770983         2.227126        -1.236685
 H         1.005459         2.059078        -1.258815
 H         3.070297         1.554872         2.147274
 H         1.365734         1.260340         2.613155
 H         3.408154        -0.495733         3.370040
 H         1.010776        -2.259492         1.520770
 H         0.352575        -0.919850         2.468178
 H         0.628943        -0.595254        -0.668431
 H         4.329824        -0.586430        -0.732442
