19
Iteration:  1703charge 0 multiplicity 1
 C         2.052045         2.079723        -0.586015
 C         1.891130         0.981156         0.405810
 C         2.610237         0.997595         1.685540
 C         2.449365        -0.570443         1.808510
 O         3.278228        -1.335334         2.637451
 C         0.941619        -0.989187         1.847544
 C         0.929990        -0.367861         0.421979
 C         2.399774        -0.433609         0.186523
 O         3.175690        -0.796247        -0.879731
 H         2.156011         3.151753        -0.183522
 H         2.972693         2.042496        -1.286255
 H         1.176088         2.102771        -1.274703
 H         3.595434         1.332306         1.448818
 H         2.192750         1.529094         2.623189
 H         4.145666        -0.913659         2.462217
 H         0.731677        -2.082355         1.753494
 H         0.267080        -0.550860         2.523977
 H         0.175938        -0.365840        -0.303386
 H         2.794655        -1.496276        -1.368273
