19
Iteration:  4203
 C         1.784899         2.229028        -0.383027
 C         1.926143         0.939467         0.392287
 C         2.194899         0.842075         1.803939
 C         2.416701        -0.610035         1.727818
 O         2.994218        -1.079897         2.913095
 C         1.089868        -1.196370         1.450084
 C         1.170906        -0.409865         0.074804
 C         2.659867        -0.409498         0.168863
 O         3.549269        -0.742457        -0.765209
 H         2.697237         2.800288        -0.187089
 H         1.833255         1.972878        -1.402529
 H         0.903892         2.690516        -0.145309
 H         3.206770         1.346124         2.050991
 H         1.362196         1.248011         2.507637
 H         3.965734        -1.074071         2.839374
 H         1.210143        -2.269766         1.030199
 H         0.235335        -1.134336         2.162875
 H         0.566662        -0.533242        -0.926875
 H         3.172927        -1.480816        -1.350431
