19
Iteration:  1367charge 0 multiplicity 1
 C         1.865230         2.216850        -0.418977
 C         1.989668         0.912012         0.334048
 C         2.490471         0.914913         1.764452
 C         2.497854        -0.561162         1.738096
 O         3.239415        -1.131413         2.698842
 C         0.972202        -0.945685         1.772714
 C         0.964751        -0.350472         0.339915
 C         2.470017        -0.442355         0.011681
 O         3.289779        -1.050218        -0.895769
 H         2.644284         2.393302        -1.195825
 H         0.865320         2.052921        -0.862853
 H         1.964591         2.974560         0.381801
 H         3.562508         1.395687         1.753237
 H         1.871272         1.400463         2.498591
 H         4.021061        -0.580089         2.942859
 H         0.704901        -1.980065         1.828273
 H         0.381106        -0.337627         2.392155
 H         0.115541        -0.311911        -0.485080
 H         3.168118        -2.020161        -0.861102
