19
Iteration:    93
 C         1.844997         2.137222        -0.560425
 C         1.896198         0.912512         0.345696
 C         2.320001         1.033313         1.770383
 C         2.415055        -0.495293         1.755235
 O         3.402228        -1.144034         2.690302
 C         0.896240        -1.043645         1.601085
 C         0.955299        -0.374673         0.246484
 C         2.494988        -0.480366         0.208534
 O         3.459889        -0.973054        -0.665449
 H         2.475534         1.980010        -1.445405
 H         0.801389         2.346898        -0.852106
 H         2.095821         3.002509         0.097924
 H         3.332691         1.467211         1.940716
 H         1.640533         1.642471         2.411707
 H         3.471817        -2.058926         2.289408
 H         0.789946        -2.190486         1.668223
 H         0.058950        -0.742205         2.387583
 H         0.414422        -0.602528        -0.675543
 H         4.026102        -0.226636        -0.866289
