19
Iteration:  3966
 C         1.864962         2.126852        -0.574275
 C         1.931266         0.923438         0.415056
 C         2.145975         1.009786         1.918045
 C         2.341959        -0.613086         1.841873
 O         3.209358        -1.140413         2.749640
 C         0.947851        -1.138486         1.458698
 C         1.108572        -0.435351         0.138407
 C         2.597402        -0.386612         0.163349
 O         3.636847        -0.736944        -0.718999
 H         2.616444         2.898004        -0.309586
 H         1.928378         1.963249        -1.645115
 H         0.830240         2.543161        -0.452167
 H         3.043504         1.514464         2.226560
 H         1.302466         1.393700         2.606021
 H         3.272639        -2.083710         2.519234
 H         1.023335        -2.190568         1.348854
 H         0.051795        -0.864825         2.161230
 H         0.221144        -0.276319        -0.524599
 H         3.696996        -1.670803        -0.996502
