19
Iteration:   462charge 0 multiplicity 1
 C         1.721204         2.078095        -0.613801
 C         1.884361         0.931759         0.384245
 C         2.213163         0.985581         1.862429
 C         2.370704        -0.527220         1.876490
 O         3.208744        -1.129219         2.755042
 C         1.017851        -1.101298         1.544736
 C         1.122197        -0.484920         0.200499
 C         2.607970        -0.346602         0.160602
 O         3.507266        -0.893270        -0.756602
 H         1.479603         3.055996        -0.183547
 H         2.662674         2.194965        -1.192742
 H         0.951197         1.971476        -1.343350
 H         3.187288         1.396432         2.047743
 H         1.387261         1.392883         2.553033
 H         4.097451        -1.250103         2.396857
 H         1.047002        -2.126931         1.700633
 H         0.323102        -0.587876         2.222004
 H         0.516133        -0.675908        -0.731272
 H         4.408261        -0.423017        -0.668315
