19
Iteration:  1966charge 0 multiplicity 1
 C         1.775093         2.156685        -0.522121
 C         1.949204         0.941077         0.337488
 C         2.573250         0.908392         1.793198
 C         2.473700        -0.549487         1.772809
 O         3.215176        -1.323184         2.690593
 C         0.990033        -0.868646         1.668632
 C         0.951614        -0.196467         0.302277
 C         2.448863        -0.440471         0.121841
 O         3.345641        -0.948534        -0.770548
 H         0.936147         2.108129        -1.208648
 H         1.828144         3.041190         0.047491
 H         2.612934         2.284942        -1.127527
 H         3.646315         1.148613         1.818704
 H         2.029505         1.191120         2.734894
 H         4.199783        -1.185317         2.565764
 H         0.818492        -1.966636         1.375724
 H         0.303363        -0.613113         2.498737
 H         0.142523        -0.115579        -0.378067
 H         3.333353        -1.942703        -0.983766
