19
Iteration:  2328charge 0 multiplicity 1
 C         1.803164         2.190491        -0.533869
 C         2.023038         0.979167         0.412562
 C         2.461669         0.894098         1.839997
 C         2.372033        -0.604593         1.804933
 O         3.237430        -1.226825         2.810503
 C         0.949306        -1.022586         1.593845
 C         1.012795        -0.291690         0.116861
 C         2.484372        -0.477958         0.174128
 O         3.403925        -0.875922        -0.801979
 H         0.836565         1.957076        -1.087871
 H         1.620015         3.164627        -0.026257
 H         2.599291         2.393927        -1.219858
 H         3.557479         1.015786         1.870571
 H         1.994484         1.456169         2.592403
 H         3.970730        -0.551949         2.892733
 H         0.915927        -2.070575         1.449800
 H         0.202929        -0.762623         2.313140
 H         0.330963        -0.355474        -0.696275
 H         3.203673        -1.592449        -1.367037
