19
Iteration:  1769charge 0 multiplicity 1
 C         1.856213         2.252305        -0.585248
 C         1.976430         1.033363         0.347413
 C         2.568866         0.970487         1.852237
 C         2.518356        -0.556896         1.806019
 O         3.225126        -1.341814         2.578320
 C         1.054054        -0.944975         1.682242
 C         1.048277        -0.224132         0.323974
 C         2.498299        -0.447497         0.211680
 O         3.089497        -1.030011        -0.819207
 H         2.516915         3.206078        -0.480689
 H         1.931313         1.915594        -1.689538
 H         0.804765         2.566485        -0.363753
 H         3.563449         1.279785         1.878420
 H         2.028716         1.399052         2.735803
 H         4.052032        -0.982151         2.922246
 H         1.144607        -2.055632         1.492381
 H         0.300365        -0.778429         2.420606
 H         0.244068        -0.567646        -0.362612
 H         2.897478        -2.011267        -0.611552
