19
Iteration:    78
 C         1.820213         2.220224        -0.636682
 C         1.872093         0.945334         0.291707
 C         2.421794         0.994393         1.814813
 C         2.388277        -0.575198         1.883130
 O         3.320575        -1.117642         2.619108
 C         0.981170        -1.080701         1.664888
 C         0.997331        -0.441287         0.199378
 C         2.440214        -0.449967         0.185510
 O         3.438391        -0.939389        -0.647941
 H         2.445344         2.209336        -1.555636
 H         0.848973         2.479345        -1.075774
 H         2.129032         3.083312        -0.142136
 H         3.396941         1.374988         1.731414
 H         1.896086         1.419352         2.708391
 H         3.246755        -2.056685         2.878676
 H         1.029565        -2.121546         1.422812
 H         0.234305        -0.933272         2.377002
 H         0.092539        -0.533497        -0.562717
 H         4.253512        -0.347476        -0.399644
