19
Iteration:  1539
 C         1.840443         2.168278        -0.633472
 C         2.059999         1.026530         0.430600
 C         2.546624         0.952420         1.876164
 C         2.451589        -0.615041         1.845555
 O         3.354503        -1.327854         2.604220
 C         1.021639        -0.888665         1.761031
 C         1.021651        -0.239402         0.335147
 C         2.458963        -0.412277         0.128226
 O         3.097648        -1.035548        -0.906297
 H         0.787680         2.388827        -0.730144
 H         2.342851         3.079560        -0.280971
 H         2.230823         1.698570        -1.504122
 H         3.575538         1.235059         1.932929
 H         1.865807         1.576804         2.481581
 H         4.040101        -0.733498         2.929744
 H         0.868244        -2.017340         1.812944
 H         0.247171        -0.451676         2.501654
 H         0.158769         0.044955        -0.338878
 H         2.608716        -1.900969        -1.142559
