19
Iteration:  4363
 C         1.836834         2.093303        -0.461766
 C         2.012688         0.975913         0.442976
 C         2.105105         0.952513         1.978995
 C         2.364606        -0.546008         1.830566
 O         3.158894        -1.297097         2.790897
 C         0.951773        -1.104790         1.363865
 C         1.234314        -0.483485         0.072303
 C         2.650541        -0.345533         0.197745
 O         3.503877        -0.676669        -0.850664
 H         2.597356         2.648188        -1.006045
 H         1.137516         1.823100        -1.375844
 H         1.228066         2.977854        -0.027462
 H         2.879954         1.700418         2.285002
 H         1.138203         1.060216         2.515586
 H         3.479346        -0.770496         3.534049
 H         1.084665        -2.167448         1.214224
 H         0.133655        -0.759515         2.077625
 H         0.851344        -0.772318        -0.973293
 H         3.772350        -1.643142        -0.631871
