19
Iteration:  3565charge 0 multiplicity 1
 C         1.798523         2.103704        -0.640046
 C         1.759734         0.989459         0.355361
 C         2.312987         1.056714         1.824753
 C         2.375208        -0.464400         1.852907
 O         3.292784        -1.385757         2.484529
 C         0.870782        -0.990878         1.610472
 C         1.051444        -0.383857         0.147724
 C         2.551855        -0.344575         0.260508
 O         3.584213        -1.004667        -0.445026
 H         2.639218         2.692604        -0.636598
 H         1.555310         1.678657        -1.615072
 H         1.028972         2.813106        -0.386663
 H         3.329232         1.461898         1.748603
 H         1.665939         1.503759         2.612881
 H         4.195344        -0.984710         2.381818
 H         0.845316        -2.113869         1.632984
 H         0.179563        -0.484263         2.192025
 H         0.487371        -0.530877        -0.853417
 H         4.163088        -0.381137        -0.885357
