19
Iteration:  1079
 C         1.957166         2.050402        -0.740884
 C         1.888894         0.999994         0.416698
 C         2.424756         1.085025         1.833641
 C         2.454786        -0.495292         1.803033
 O         3.290672        -1.307318         2.448788
 C         1.023525        -1.069625         1.782099
 C         0.903275        -0.191235         0.454231
 C         2.478507        -0.349591         0.212334
 O         3.275636        -1.006467        -0.739436
 H         2.613640         1.558688        -1.413158
 H         0.929020         2.184615        -1.018921
 H         2.433880         3.005074        -0.434101
 H         3.562232         1.391796         1.704059
 H         1.903171         1.550243         2.684058
 H         4.102433        -0.905101         2.708581
 H         1.044651        -2.235614         1.688926
 H         0.443165        -0.753354         2.699920
 H         0.101659        -0.253679        -0.365694
 H         2.997120        -1.860834        -0.986222
