19
Iteration:  3418charge 0 multiplicity 1
 C         1.757616         2.119390        -0.606074
 C         2.039649         1.010819         0.407181
 C         2.327883         1.081347         1.874165
 C         2.367432        -0.525899         1.836921
 O         3.150411        -1.241615         2.764245
 C         0.939430        -1.114103         1.479649
 C         1.154618        -0.367140         0.180532
 C         2.580719        -0.326143         0.233153
 O         3.405000        -1.032341        -0.729455
 H         2.750368         2.442035        -1.059716
 H         0.950224         1.765298        -1.237329
 H         1.205533         3.013803        -0.247267
 H         3.332779         1.532862         2.087305
 H         1.540647         1.550861         2.489597
 H         4.070539        -0.986561         2.722122
 H         1.225765        -2.132531         1.298000
 H         0.099282        -1.311464         2.232587
 H         0.627066        -0.558213        -0.774964
 H         4.067551        -0.462304        -1.171024
