19
Iteration:  2957
 C         1.886877         2.080081        -0.691372
 C         1.934953         0.954805         0.414049
 C         2.213563         1.098385         1.906860
 C         2.359575        -0.526942         1.809171
 O         3.314570        -1.390457         2.444187
 C         0.941738        -1.080677         1.554944
 C         0.959695        -0.259727         0.278834
 C         2.480257        -0.378237         0.177312
 O         3.558132        -0.899026        -0.560000
 H         2.915522         2.384890        -0.990651
 H         1.236546         1.819389        -1.585158
 H         1.468880         3.003959        -0.138008
 H         3.215930         1.457768         2.081351
 H         1.459061         1.440860         2.599181
 H         3.392711        -1.128728         3.390781
 H         0.974840        -2.091123         1.195817
 H         0.143495        -0.873333         2.301929
 H         0.291957        -0.523935        -0.528760
 H         4.389814        -0.501685        -0.124134
