19
Iteration:   506charge 0 multiplicity 1
 C         1.671266         1.954093        -0.680806
 C         1.902228         0.945919         0.372404
 C         2.298901         1.044362         1.777715
 C         2.428393        -0.535546         1.790261
 O         3.191614        -1.338364         2.713096
 C         0.978161        -1.025113         1.655680
 C         1.069657        -0.332501         0.255623
 C         2.559628        -0.346462         0.201589
 O         3.623613        -0.811438        -0.610826
 H         0.727415         2.507631        -0.532180
 H         2.588574         2.617261        -0.845431
 H         1.489507         1.407940        -1.616838
 H         3.285533         1.439027         1.962700
 H         1.402437         1.455504         2.439816
 H         4.083418        -1.144021         2.367197
 H         0.962075        -1.986328         1.276441
 H         0.180579        -0.784802         2.319571
 H         0.187896        -0.535051        -0.516414
 H         3.925782        -0.026446        -1.192749
