19
Iteration:  3789
 C         1.802220         2.123289        -0.560676
 C         1.991478         0.957029         0.367070
 C         2.225182         0.987785         1.906825
 C         2.329131        -0.610968         1.826261
 O         3.161977        -1.164881         2.781159
 C         0.965275        -1.127379         1.432136
 C         1.101553        -0.384046         0.157601
 C         2.635384        -0.402034         0.226009
 O         3.564817        -0.784220        -0.685099
 H         2.687532         2.707836        -0.800389
 H         1.406545         1.805219        -1.487706
 H         1.091331         2.785139        -0.087930
 H         3.260033         1.474776         1.902544
 H         1.415400         1.688934         2.412920
 H         3.794804        -1.750065         2.358336
 H         0.862687        -2.180696         1.408015
 H         0.218384        -0.836765         2.262952
 H         0.713057        -0.538318        -0.899387
 H         3.095230        -1.471745        -1.103211
