19
Iteration:  4504
 C         1.922111         2.231848        -0.480909
 C         1.820194         0.970029         0.390515
 C         2.228677         0.957357         1.881223
 C         2.276159        -0.519247         1.809134
 O         3.258575        -1.177159         2.615337
 C         0.926754        -1.203486         1.443701
 C         1.032443        -0.453198         0.168770
 C         2.555781        -0.403049         0.227113
 O         3.610501        -0.814612        -0.605977
 H         1.614159         3.068496         0.041065
 H         2.970432         2.240301        -0.614323
 H         1.362532         2.098581        -1.399585
 H         3.264264         1.339743         1.849217
 H         1.531763         1.519034         2.575544
 H         4.160942        -1.064613         2.269248
 H         1.183287        -2.222415         1.365252
 H         0.058655        -1.085591         2.184978
 H         0.314812        -0.546212        -0.619407
 H         3.258728        -1.421566        -1.314407
