19
Iteration:  3466
 C         1.914532         2.125692        -0.404931
 C         1.911338         0.808205         0.255586
 C         2.319760         1.009609         1.766619
 C         2.415105        -0.500826         1.840463
 O         3.096778        -1.104774         2.944540
 C         1.008865        -1.103274         1.652297
 C         1.026426        -0.452400         0.206489
 C         2.578242        -0.442948         0.056478
 O         3.470531        -0.877802        -1.085284
 H         2.845182         2.553863        -0.192266
 H         1.613135         2.136087        -1.438210
 H         1.147211         2.697830         0.089914
 H         3.319468         1.502894         1.872690
 H         1.542996         1.379358         2.540982
 H         3.352729        -0.395997         3.593195
 H         0.874968        -2.220944         1.874819
 H         0.367838        -0.595272         2.325216
 H         0.203277        -0.468621        -0.515284
 H         4.331615        -1.186463        -0.637869
