19
Iteration:  1177charge 0 multiplicity 1
 C         1.710618         2.077883        -0.612978
 C         1.970700         1.012576         0.362308
 C         2.517902         1.020675         1.777244
 C         2.459640        -0.481661         1.846618
 O         3.255068        -1.340861         2.701215
 C         1.047734        -0.989710         1.648279
 C         1.047942        -0.206959         0.370128
 C         2.543058        -0.310118         0.141437
 O         3.284131        -1.079142        -0.819351
 H         0.946174         1.732910        -1.373937
 H         1.295130         2.933489        -0.004501
 H         2.733419         2.215073        -1.117434
 H         3.631768         1.319156         1.701310
 H         1.904203         1.596227         2.416292
 H         3.857703        -0.871151         3.270648
 H         0.966639        -2.133228         1.539265
 H         0.337607        -0.622687         2.410370
 H         0.231684        -0.186957        -0.480190
 H         2.670733        -1.723237        -1.114467
