19
Iteration:  4066
 C         1.768261         2.031367        -0.529610
 C         1.837592         0.874732         0.371481
 C         2.213989         0.969140         1.943561
 C         2.393913        -0.532854         1.802360
 O         3.168174        -1.288572         2.738279
 C         0.867224        -0.997703         1.466138
 C         1.075309        -0.433077         0.075225
 C         2.602666        -0.399784         0.160219
 O         3.756410        -0.632750        -0.634041
 H         2.742443         2.588016        -0.594139
 H         1.484124         1.934605        -1.607485
 H         0.976293         2.775943        -0.060507
 H         3.087784         1.608795         1.944012
 H         1.502560         1.119933         2.812463
 H         3.967193        -1.536711         2.223726
 H         0.665833        -2.098111         1.406675
 H        -0.022087        -0.600339         2.075868
 H         0.587370        -0.619773        -0.911934
 H         3.884643        -1.549386        -0.667649
