19
Iteration:  4455
 C         1.737883         2.049698        -0.722366
 C         1.918046         1.047053         0.457500
 C         2.053716         1.013133         2.057388
 C         2.356760        -0.546167         1.807422
 O         3.265103        -1.384757         2.445976
 C         0.937950        -1.055687         1.542106
 C         1.133109        -0.289281         0.144394
 C         2.622989        -0.317408         0.272682
 O         3.706471        -0.872567        -0.483912
 H         1.793836         3.045545        -0.093866
 H         2.648784         1.956531        -1.396993
 H         0.727822         2.024974        -1.186264
 H         2.920904         1.592132         2.383200
 H         1.164480         1.133723         2.596900
 H         4.142156        -1.392863         2.005689
 H         0.735489        -2.161970         1.312707
 H         0.161553        -0.696439         2.163294
 H         0.399884        -0.252618        -0.692473
 H         3.417539        -0.934129        -1.428775
