19
Iteration:  4469charge 0 multiplicity 1
 C         1.822096         2.107502        -0.641239
 C         1.926527         1.035131         0.446100
 C         2.092433         0.974979         1.974112
 C         2.422624        -0.564273         1.771211
 O         3.312750        -1.374677         2.510622
 C         0.950670        -1.090787         1.394873
 C         1.060120        -0.328535         0.211475
 C         2.539872        -0.262382         0.218352
 O         3.599083        -0.853905        -0.387810
 H         1.755199         3.189581        -0.585476
 H         2.578859         1.933262        -1.352584
 H         0.985865         1.796208        -1.269980
 H         2.835102         1.514656         2.474003
 H         1.176093         1.248585         2.525685
 H         4.078132        -1.166193         1.959132
 H         1.213674        -2.092809         1.345008
 H         0.165317        -0.966500         2.176043
 H         0.283536        -0.146815        -0.632475
 H         3.346769        -1.097356        -1.332103
