19
Iteration:  4462
 C         1.768889         2.069667        -0.696846
 C         1.920201         1.033509         0.483398
 C         2.065176         0.994871         2.017132
 C         2.347928        -0.548716         1.792987
 O         3.299499        -1.391273         2.467436
 C         0.971106        -1.047697         1.503435
 C         1.099706        -0.316960         0.159746
 C         2.600157        -0.291437         0.246641
 O         3.656875        -0.870702        -0.443831
 H         1.803165         3.124369        -0.424989
 H         2.593454         2.045672        -1.481583
 H         0.849620         1.955693        -1.309331
 H         2.863992         1.639999         2.547720
 H         1.102737         1.089151         2.639711
 H         4.147884        -1.328834         2.000549
 H         0.985406        -2.163135         1.237561
 H         0.037177        -0.748867         2.079828
 H         0.367306        -0.095281        -0.541918
 H         3.451496        -1.033471        -1.433828
