19
Iteration:  1303charge 0 multiplicity 1
 C         1.847444         1.832806        -0.810177
 C         2.027565         0.943382         0.446832
 C         2.425259         0.975769         1.974864
 C         2.526319        -0.552740         1.783150
 O         3.220669        -1.356854         2.574803
 C         1.043458        -0.869776         1.744841
 C         0.996432        -0.213806         0.371546
 C         2.427443        -0.413811         0.212509
 O         3.308393        -0.725189        -0.824905
 H         1.770498         1.170227        -1.700968
 H         0.879888         2.372250        -0.651852
 H         2.601596         2.663623        -0.944686
 H         3.395024         1.428075         2.170492
 H         1.663897         1.299624         2.714631
 H         4.209363        -1.200480         2.555602
 H         0.639718        -1.870311         1.892079
 H         0.380129        -0.194382         2.537954
 H         0.134382        -0.159944        -0.405465
 H         3.105232        -1.598622        -1.096047
