19
Iteration:  3003charge 0 multiplicity 1
 C         1.930450         2.173125        -0.579506
 C         1.895197         0.906174         0.354315
 C         2.256142         0.973286         1.882732
 C         2.343483        -0.592479         1.843201
 O         3.406486        -1.291251         2.521215
 C         0.803522        -1.004712         1.590969
 C         0.948854        -0.367058         0.143991
 C         2.487404        -0.408286         0.238632
 O         3.540398        -0.817189        -0.652968
 H         2.708124         2.907410        -0.168451
 H         2.204868         1.781723        -1.553873
 H         0.944456         2.661042        -0.604441
 H         3.290722         1.325867         2.017257
 H         1.549210         1.375724         2.591335
 H         3.831543        -0.622311         3.060614
 H         0.761908        -2.151951         1.497859
 H         0.156873        -0.592237         2.317662
 H         0.274800        -0.455771        -0.796449
 H         3.918633        -1.640987        -0.198534
