19
Iteration:  3687charge 0 multiplicity 1
 C         1.947083         2.096606        -0.587177
 C         1.867992         0.931575         0.372985
 C         2.288008         0.931903         1.848415
 C         2.388821        -0.589755         1.749661
 O         3.353377        -1.144780         2.671986
 C         0.907150        -1.075257         1.562908
 C         0.942925        -0.407714         0.152937
 C         2.495583        -0.380577         0.174942
 O         3.540440        -0.764305        -0.657909
 H         2.680951         2.779523        -0.233013
 H         2.301033         1.942301        -1.616356
 H         0.939985         2.489990        -0.625067
 H         3.242818         1.413200         2.177439
 H         1.599709         1.493196         2.552874
 H         2.823485        -1.541325         3.413787
 H         0.737909        -2.195847         1.359794
 H         0.157386        -0.653604         2.210958
 H         0.220707        -0.485605        -0.596086
 H         3.723875        -1.753063        -0.416948
