19
Iteration:  4366charge 0 multiplicity 1
 C         1.827651         2.084536        -0.457879
 C         2.005863         0.986141         0.427128
 C         2.125480         0.972054         1.991066
 C         2.386893        -0.564723         1.832436
 O         3.143562        -1.293809         2.804774
 C         0.945295        -1.118436         1.380977
 C         1.200161        -0.467911         0.033469
 C         2.634887        -0.355726         0.186459
 O         3.538761        -0.679069        -0.847016
 H         2.613170         2.739471        -0.981024
 H         1.144733         1.871560        -1.360144
 H         1.159112         2.851525         0.031749
 H         2.912325         1.679647         2.316765
 H         1.264129         1.149017         2.533517
 H         3.531920        -0.690892         3.470593
 H         1.091043        -2.262199         1.236501
 H         0.149493        -0.819204         1.954196
 H         0.764614        -0.726225        -0.867289
 H         3.714666        -1.638712        -0.631340
