19
Iteration:  1903charge 0 multiplicity 1
 C         1.976921         2.084786        -0.562479
 C         1.917776         0.969161         0.422347
 C         2.412379         0.980695         1.872421
 C         2.478115        -0.625043         1.819846
 O         3.360468        -1.292404         2.639668
 C         0.922557        -0.918989         1.726642
 C         1.017477        -0.229666         0.339166
 C         2.489085        -0.427794         0.129731
 O         3.197952        -0.938634        -0.945484
 H         2.350065         1.726461        -1.585563
 H         0.929798         2.511043        -0.755075
 H         2.888103         2.783772        -0.221664
 H         3.333511         1.379914         2.125584
 H         1.728281         1.467052         2.627684
 H         3.853000        -0.658020         3.226878
 H         0.609004        -1.933844         1.451287
 H         0.428357        -0.466622         2.623801
 H         0.486943        -0.338583        -0.560829
 H         2.655312        -1.760968        -1.263305
