19
Iteration:  4317charge 0 multiplicity 1
 C         1.954512         2.107810        -0.501317
 C         1.864976         0.949846         0.396993
 C         2.172859         0.916773         1.898866
 C         2.395574        -0.551450         1.800370
 O         3.274202        -1.204120         2.641062
 C         1.019302        -1.231370         1.426331
 C         0.958538        -0.432645         0.095957
 C         2.478429        -0.390069         0.158675
 O         3.599960        -0.594682        -0.601086
 H         2.837302         1.968540        -1.097588
 H         1.211827         2.060654        -1.324730
 H         1.980974         3.185970        -0.240172
 H         3.109816         1.397384         2.183441
 H         1.282612         1.341803         2.509723
 H         2.806899        -1.416178         3.474961
 H         1.284197        -2.224077         1.265244
 H         0.009910        -1.032177         1.997015
 H         0.178785        -0.500819        -0.717269
 H         3.958543        -1.399816        -0.248671
