19
Iteration:  1313
 C         1.831032         1.876254        -0.714362
 C         2.008458         1.004726         0.443207
 C         2.519414         1.051945         1.904149
 C         2.476457        -0.555245         1.732267
 O         3.181957        -1.360446         2.623588
 C         0.998470        -0.927756         1.791431
 C         0.973860        -0.294965         0.381405
 C         2.515367        -0.426234         0.177573
 O         3.288894        -0.749071        -0.851779
 H         2.119196         1.321094        -1.657413
 H         0.799559         2.268700        -0.958063
 H         2.531114         2.750022        -0.830542
 H         3.492104         1.467996         2.290120
 H         1.756744         1.487893         2.528737
 H         4.169948        -1.146151         2.588527
 H         0.870057        -2.024978         1.793339
 H         0.361401        -0.305338         2.605253
 H         0.108776        -0.135098        -0.407375
 H         3.147633        -1.658521        -1.134549
