19
Iteration:   233
 C         1.828208         2.102045        -0.614603
 C         1.898817         0.987040         0.399468
 C         2.279626         1.007939         1.890190
 C         2.400600        -0.496010         1.804234
 O         3.304181        -1.157730         2.625225
 C         0.973956        -1.156969         1.618432
 C         1.030179        -0.431988         0.215812
 C         2.489266        -0.384993         0.110290
 O         3.520876        -0.891394        -0.673831
 H         0.899446         1.958933        -1.171466
 H         1.949852         3.086662        -0.167524
 H         2.643357         1.885321        -1.256767
 H         3.210829         1.472361         1.894297
 H         1.606293         1.614838         2.519245
 H         3.485438        -0.642260         3.441030
 H         0.968831        -2.188869         1.751773
 H         0.412902        -0.744296         2.332367
 H         0.373986        -0.538137        -0.690195
 H         3.216575        -1.626196        -1.207706
