19
Iteration:  3035charge 0 multiplicity 1
 C         1.808512         2.042149        -0.519634
 C         1.988544         0.940274         0.407691
 C         2.301847         1.007251         1.863701
 C         2.379360        -0.575220         1.776215
 O         3.154709        -1.264179         2.733611
 C         0.997286        -1.017025         1.574255
 C         1.003852        -0.306844         0.212330
 C         2.578403        -0.353615         0.099648
 O         3.540712        -0.873913        -0.757625
 H         2.261535         2.997643        -0.147042
 H         2.427065         1.875908        -1.413209
 H         0.772615         2.399724        -0.716911
 H         3.265657         1.355784         2.241212
 H         1.535789         1.302970         2.542580
 H         3.933904        -0.668271         2.890972
 H         0.808990        -2.112581         1.433180
 H         0.402471        -0.777239         2.428956
 H         0.457413        -0.468402        -0.791377
 H         3.087200        -1.524607        -1.299061
