19
Iteration:  4652
 C         2.018488         2.175609        -0.538057
 C         1.779658         0.976051         0.404629
 C         2.151233         0.960170         1.845804
 C         2.353563        -0.533304         1.872610
 O         3.374534        -1.224696         2.550178
 C         0.893801        -1.091130         1.533868
 C         1.015245        -0.454337         0.171783
 C         2.501468        -0.317398         0.225937
 O         3.552268        -0.834392        -0.620634
 H         1.051889         2.544730        -0.915134
 H         2.441926         2.879548         0.173440
 H         2.783897         1.811120        -1.183052
 H         3.071132         1.585768         2.054868
 H         1.412801         1.468003         2.556075
 H         3.968843        -1.595446         1.847155
 H         0.924552        -2.225770         1.369588
 H        -0.009570        -0.813004         2.092803
 H         0.280228        -0.517895        -0.581034
 H         3.457435        -1.756281        -0.728026
