19
Iteration:  3192charge 0 multiplicity 1
 C         1.844668         2.055518        -0.744190
 C         1.973090         0.957247         0.422720
 C         2.214052         0.974855         1.994978
 C         2.348023        -0.558585         1.847800
 O         3.413806        -1.300335         2.587684
 C         0.831128        -0.962404         1.554478
 C         1.054820        -0.278026         0.147033
 C         2.519699        -0.374199         0.256924
 O         3.552741        -0.755896        -0.614740
 H         2.668339         2.077225        -1.506018
 H         0.985562         1.579140        -1.248044
 H         1.657372         3.110591        -0.489211
 H         3.167539         1.460302         2.125678
 H         1.448062         1.203026         2.676463
 H         3.195176        -2.249059         2.396904
 H         0.754714        -2.082983         1.275412
 H         0.087056        -0.626560         2.251121
 H         0.319806        -0.607883        -0.566633
 H         3.610372        -1.705016        -0.479019
