19
Iteration:   544
 C         1.793389         2.028566        -0.590949
 C         1.794025         0.921443         0.379205
 C         2.301338         0.976879         1.761313
 C         2.408458        -0.560936         1.781322
 O         3.337688        -1.212410         2.575370
 C         0.867868        -0.939938         1.611086
 C         1.036549        -0.502457         0.194655
 C         2.522682        -0.413442         0.232062
 O         3.537987        -0.844463        -0.558228
 H         0.810465         2.361910        -0.893939
 H         2.213632         2.855834        -0.095944
 H         2.438960         1.816528        -1.457229
 H         3.273045         1.490782         1.675957
 H         1.831920         1.462139         2.547347
 H         4.050561        -0.603237         2.903108
 H         0.901974        -2.129917         1.587766
 H         0.111106        -0.643914         2.408913
 H         0.466572        -0.717631        -0.609872
 H         3.967127        -0.097555        -1.007756
