19
Iteration:  2755
 C         1.812858         2.131830        -0.700545
 C         1.921941         0.960695         0.366528
 C         2.340179         0.883656         1.899577
 C         2.289879        -0.563338         1.850475
 O         3.327844        -1.219257         2.607998
 C         0.853900        -1.014527         1.586811
 C         1.052081        -0.349299         0.188971
 C         2.560922        -0.470953         0.271564
 O         3.542930        -0.740192        -0.688317
 H         2.328116         2.997558        -0.063855
 H         2.392644         2.137922        -1.667926
 H         0.772257         2.552778        -0.737361
 H         3.395488         1.170829         2.093990
 H         1.639624         1.304636         2.642598
 H         3.194204        -2.176896         2.600126
 H         0.495191        -2.015252         1.436826
 H         0.103729        -0.609888         2.295804
 H         0.458710        -0.435937        -0.672125
 H         4.082792        -1.486935        -0.450991
