19
Iteration:  1668
 C         1.917016         1.966280        -0.693846
 C         1.946616         0.981911         0.456798
 C         2.572636         0.997109         1.820831
 C         2.531371        -0.601543         1.715265
 O         3.262574        -1.462451         2.508555
 C         0.944922        -0.852930         1.805571
 C         0.920603        -0.145418         0.485316
 C         2.405237        -0.407377         0.190283
 O         3.215147        -0.820164        -0.835565
 H         1.169811         2.805844        -0.492306
 H         2.971754         2.273479        -1.027793
 H         1.446233         1.429109        -1.574252
 H         3.496427         1.557403         1.806595
 H         1.951311         1.405008         2.691787
 H         4.124155        -1.030944         2.631414
 H         0.790834        -1.951247         1.785386
 H         0.618334        -0.417711         2.749110
 H         0.167194        -0.101045        -0.299102
 H         3.520200        -1.690778        -0.653381
