19
Iteration:  2867charge 0 multiplicity 1
 C         1.792399         2.282826        -0.505025
 C         1.960990         0.997394         0.368851
 C         2.339976         0.950244         1.854351
 C         2.454419        -0.596040         1.807527
 O         3.117912        -1.115166         2.937254
 C         0.987836        -1.135058         1.490918
 C         1.068979        -0.404339         0.168197
 C         2.530593        -0.467594         0.136054
 O         3.426242        -0.964106        -0.903778
 H         2.844781         2.694829        -0.553391
 H         1.551587         2.075512        -1.609910
 H         1.282438         3.204522        -0.000286
 H         3.326209         1.388427         1.942263
 H         1.700729         1.217708         2.710805
 H         3.585751        -1.967281         2.743164
 H         1.084038        -2.164822         1.299444
 H         0.211667        -0.909793         2.314889
 H         0.497656        -0.183688        -0.762494
 H         4.346720        -0.602881        -0.715565
