19
Iteration:  1387charge 0 multiplicity 1
 C         1.756751         2.203323        -0.424482
 C         2.030204         0.931639         0.363311
 C         2.421971         1.019816         1.819593
 C         2.467263        -0.549523         1.836526
 O         3.344296        -1.201490         2.658760
 C         0.954484        -0.875170         1.695633
 C         1.007446        -0.246648         0.294257
 C         2.503766        -0.581972         0.137166
 O         3.276632        -1.135427        -0.958987
 H         2.730818         2.581900        -0.809269
 H         1.103454         2.196919        -1.312702
 H         1.593592         3.026277         0.259069
 H         3.432131         1.599185         1.914882
 H         1.765156         1.485421         2.530626
 H         4.048120        -0.580785         2.787957
 H         0.865588        -1.939129         1.442962
 H         0.293342        -0.503941         2.410974
 H         0.207004        -0.157243        -0.542111
 H         3.093976        -2.131767        -0.796422
