19
Iteration:   881
 C         1.876654         2.051207        -0.694667
 C         1.915431         0.920652         0.371248
 C         2.442204         1.038198         1.823568
 C         2.499252        -0.443734         1.834039
 O         3.278055        -1.289994         2.578428
 C         0.927600        -0.986609         1.742930
 C         0.934960        -0.308129         0.379298
 C         2.451848        -0.499667         0.202721
 O         3.334081        -0.869844        -0.801841
 H         0.936959         2.309764        -1.107135
 H         2.266468         2.949924        -0.236548
 H         2.653839         1.741703        -1.430694
 H         3.438884         1.501356         1.638646
 H         1.958523         1.659653         2.628772
 H         4.208317        -0.983326         2.354009
 H         1.072923        -2.097556         1.767481
 H         0.324979        -0.624448         2.622164
 H        -0.036366        -0.314996        -0.194191
 H         3.567561        -1.832388        -0.626700
