19
Iteration:  3227charge 0 multiplicity 1
 C         1.882849         2.101194        -0.463507
 C         1.940470         0.925777         0.391032
 C         2.387378         0.976256         1.784163
 C         2.424573        -0.555176         1.779498
 O         3.077443        -1.146707         2.888224
 C         1.001856        -1.039410         1.546125
 C         0.979055        -0.426522         0.188860
 C         2.572884        -0.450439         0.094993
 O         3.543840        -0.730226        -0.834287
 H         2.775477         2.277261        -1.052967
 H         1.080285         1.798780        -1.191584
 H         1.420223         2.963627         0.062194
 H         3.361536         1.418568         1.838490
 H         1.788957         1.512978         2.529654
 H         3.318219        -2.080324         2.685454
 H         0.914255        -2.149161         1.508784
 H         0.200935        -0.782400         2.312425
 H         0.240803        -0.579751        -0.650830
 H         3.464673        -1.697874        -1.000965
