19
Iteration:  4832
 C         1.977890         2.130565        -0.548634
 C         1.871563         0.938111         0.410007
 C         2.033698         1.084138         1.885083
 C         2.415963        -0.626704         1.794780
 O         3.330153        -1.292222         2.574910
 C         0.920363        -1.082786         1.539464
 C         1.046628        -0.381909         0.209245
 C         2.618728        -0.353158         0.277303
 O         3.487900        -0.870497        -0.651883
 H         1.095350         2.736495        -0.669657
 H         2.709039         2.846261        -0.138253
 H         2.229786         1.904326        -1.609926
 H         2.959944         1.639772         2.067254
 H         1.163189         1.362540         2.508214
 H         3.928902        -1.937474         2.212856
 H         0.677279        -2.105691         1.491169
 H         0.285995        -0.619828         2.342518
 H         0.394986        -0.519207        -0.701483
 H         3.622720        -0.193195        -1.316400
