19
Iteration:   121charge 0 multiplicity 1
 C         1.812520         2.088479        -0.644370
 C         1.918143         0.987964         0.431144
 C         2.249308         0.996244         2.009723
 C         2.430633        -0.500750         1.770848
 O         3.316263        -1.165031         2.660369
 C         0.910744        -0.938456         1.626570
 C         1.097943        -0.399667         0.190476
 C         2.539100        -0.449297         0.205280
 O         3.440172        -1.053707        -0.750350
 H         2.256739         1.778439        -1.621375
 H         0.753851         2.336678        -0.878629
 H         2.196476         3.027429        -0.273574
 H         3.082005         1.645853         2.299690
 H         1.377936         1.244271         2.637140
 H         4.045045        -1.441145         2.035591
 H         0.807814        -1.987016         1.695000
 H         0.264928        -0.571150         2.325877
 H         0.539108        -0.633635        -0.815341
 H         3.844862        -0.305235        -1.278816
