19
Iteration:  1096
 C         1.974440         1.997322        -0.760088
 C         1.964321         1.008112         0.401862
 C         2.457269         1.001347         1.874268
 C         2.435405        -0.543257         1.757801
 O         3.402099        -1.335252         2.574347
 C         0.975700        -0.920533         1.780943
 C         0.921176        -0.306164         0.375464
 C         2.350948        -0.394901         0.186344
 O         3.211251        -0.854260        -0.751738
 H         2.543920         1.503844        -1.620131
 H         0.953092         2.312485        -1.109027
 H         2.470412         2.925010        -0.377590
 H         3.360754         1.478587         2.077897
 H         1.732579         1.492832         2.633014
 H         4.251141        -1.018161         2.285682
 H         0.900363        -1.940602         1.588217
 H         0.396330        -0.613814         2.635283
 H         0.188653        -0.384544        -0.341287
 H         3.202488        -1.809161        -0.579815
