19
Iteration:  2283
 C         1.885881         2.074501        -0.540388
 C         1.877908         0.862724         0.391665
 C         2.440346         1.064613         1.893582
 C         2.520644        -0.474518         1.907364
 O         3.068590        -1.353511         2.791793
 C         1.022797        -0.915469         1.633443
 C         1.060588        -0.416482         0.223715
 C         2.582754        -0.437330         0.124546
 O         3.338652        -0.806743        -0.991552
 H         1.765072         1.728282        -1.643057
 H         1.114907         2.848727        -0.287311
 H         2.839072         2.552008        -0.293726
 H         3.332757         1.764688         1.905530
 H         1.806022         1.405519         2.669851
 H         4.000883        -0.996378         2.842169
 H         1.063748        -2.016996         1.626441
 H         0.271127        -0.677265         2.361098
 H         0.386377        -0.472358        -0.663527
 H         2.977612        -1.654581        -1.176712
