19
Iteration:  3476
 C         1.914110         2.153809        -0.457260
 C         1.938003         0.857984         0.330891
 C         2.330058         1.016445         1.745364
 C         2.374312        -0.528895         1.922764
 O         3.110853        -1.107779         2.883149
 C         1.035011        -1.067628         1.608865
 C         1.071222        -0.534146         0.224508
 C         2.545225        -0.552838         0.021393
 O         3.409558        -0.812899        -0.998326
 H         2.761467         2.759008        -0.209016
 H         1.938965         2.109602        -1.516823
 H         1.102205         2.759083        -0.056517
 H         3.387388         1.362367         1.807439
 H         1.665713         1.655225         2.441749
 H         3.376074        -0.432443         3.564894
 H         1.008226        -2.161143         1.468251
 H         0.294575        -0.620552         2.257163
 H         0.210216        -0.672427        -0.389144
 H         4.196782        -1.154926        -0.540954
