19
Iteration:   790
 C         1.766483         2.174020        -0.569851
 C         1.889455         0.883968         0.318576
 C         2.447902         1.002617         1.799439
 C         2.487583        -0.564297         1.757836
 O         3.301983        -1.214560         2.745398
 C         1.010984        -0.992936         1.622274
 C         0.906257        -0.266554         0.273954
 C         2.504366        -0.443296         0.186548
 O         3.372987        -1.036041        -0.702786
 H         1.848446         3.069456         0.005665
 H         2.605312         2.215184        -1.277721
 H         0.956452         2.245077        -1.208858
 H         3.467815         1.646267         1.721552
 H         1.832792         1.397585         2.600211
 H         4.168455        -0.736345         2.811807
 H         1.024902        -2.033715         1.430047
 H         0.446385        -0.507998         2.526151
 H         0.371315        -0.617753        -0.523462
 H         3.088911        -1.184795        -1.670635
