19
Iteration:  1368
 C         1.865110         2.219424        -0.419213
 C         1.987966         0.908173         0.333558
 C         2.489931         0.915544         1.771587
 C         2.487595        -0.553660         1.739981
 O         3.244832        -1.129279         2.696270
 C         0.976870        -0.945649         1.763015
 C         0.965254        -0.344624         0.337988
 C         2.474769        -0.438799         0.011450
 O         3.291473        -1.058990        -0.901164
 H         2.655877         2.382128        -1.185060
 H         0.863096         2.031245        -0.850233
 H         1.935150         2.957793         0.414596
 H         3.557055         1.350581         1.793477
 H         1.838404         1.413064         2.489901
 H         4.003709        -0.581796         2.934267
 H         0.706498        -1.979486         1.854503
 H         0.366278        -0.304581         2.447214
 H         0.102942        -0.310037        -0.455766
 H         3.188980        -2.060792        -0.881908
