19
Iteration:  4283
 C         1.827351         2.110279        -0.569614
 C         1.778773         0.912223         0.404941
 C         2.208809         0.967166         1.828661
 C         2.258285        -0.566210         1.802868
 O         3.371737        -1.288944         2.516329
 C         0.811006        -1.102683         1.496396
 C         1.005822        -0.435577         0.120139
 C         2.568908        -0.397029         0.257307
 O         3.801489        -0.557641        -0.453339
 H         2.758937         1.985601        -1.101618
 H         1.064219         2.032573        -1.323052
 H         1.918088         3.120613        -0.130876
 H         3.182790         1.439342         1.895693
 H         1.409362         1.457307         2.546621
 H         3.134486        -2.225714         2.614317
 H         0.791607        -2.144639         1.595248
 H        -0.170798        -0.696520         2.014523
 H         0.457609        -0.728576        -0.712051
 H         3.957951        -1.521513        -0.734617
