19
Iteration:  1058
 C         1.844496         2.075274        -0.637762
 C         1.907383         0.988937         0.376953
 C         2.507510         1.100000         1.812792
 C         2.531575        -0.519027         1.825336
 O         3.377884        -1.339132         2.515631
 C         1.002509        -0.884383         1.723171
 C         0.935876        -0.263764         0.289613
 C         2.403725        -0.436935         0.226587
 O         3.267607        -1.066208        -0.683579
 H         2.570280         1.963141        -1.435519
 H         0.807816         2.295204        -0.950226
 H         2.206428         3.014640        -0.201511
 H         3.627158         1.477104         1.872822
 H         1.739577         1.553107         2.545640
 H         4.011808        -0.761899         3.022455
 H         0.986748        -2.043572         1.519991
 H         0.123186        -0.678596         2.412224
 H         0.056673        -0.381111        -0.436644
 H         2.718606        -1.665435        -1.308022
