19
Iteration:  3682charge 0 multiplicity 1
 C         1.933980         2.103987        -0.622087
 C         1.914290         0.953130         0.317819
 C         2.267648         0.986760         1.904826
 C         2.357466        -0.582835         1.790762
 O         3.374802        -1.157984         2.730499
 C         0.922444        -1.115464         1.564087
 C         0.975259        -0.353610         0.135439
 C         2.455020        -0.429760         0.145067
 O         3.536631        -0.779711        -0.688641
 H         2.656763         2.885619        -0.198572
 H         2.199556         1.896574        -1.691698
 H         0.920893         2.617959        -0.551021
 H         3.276057         1.283208         2.186928
 H         1.484724         1.298007         2.591317
 H         2.844660        -1.661728         3.356529
 H         0.919525        -2.150979         1.297191
 H         0.211700        -0.781209         2.371131
 H         0.195639        -0.434723        -0.697358
 H         3.575208        -1.670282        -0.416193
