19
Iteration:  4857charge 0 multiplicity 1
 C         1.889537         2.158696        -0.497672
 C         1.885401         0.955692         0.450533
 C         2.336384         0.969635         1.915618
 C         2.348389        -0.567809         1.748030
 O         3.263995        -1.173113         2.591560
 C         0.910330        -1.124534         1.463837
 C         0.874327        -0.337161         0.138496
 C         2.515104        -0.422027         0.166104
 O         3.597714        -0.866525        -0.523618
 H         0.962913         2.631428        -0.915157
 H         2.382957         3.077111        -0.052769
 H         2.406080         1.864218        -1.445250
 H         3.460671         1.027671         2.128678
 H         1.737524         1.293765         2.705266
 H         4.160976        -1.293746         2.212864
 H         0.881843        -2.213854         1.363687
 H         0.168551        -0.884502         2.175299
 H         0.268287        -0.454496        -0.681712
 H         3.438243        -0.984497        -1.432583
