19
Iteration:  1885charge 0 multiplicity 1
 C         1.990621         2.129553        -0.724058
 C         2.059137         1.047839         0.393889
 C         2.418177         0.928582         1.930059
 C         2.423807        -0.579069         1.830378
 O         3.374337        -1.341175         2.619461
 C         0.938339        -1.006723         1.707786
 C         0.882440        -0.227949         0.365561
 C         2.472265        -0.450379         0.199130
 O         3.211579        -0.893094        -0.845265
 H         2.493978         1.727675        -1.576935
 H         0.973236         2.292508        -1.009608
 H         2.562325         2.963702        -0.408149
 H         3.480735         1.407369         1.975947
 H         1.862394         1.318809         2.798628
 H         4.070169        -0.670961         2.821084
 H         0.915628        -2.080976         1.667457
 H         0.136234        -0.642846         2.357997
 H        -0.053869        -0.143005        -0.204744
 H         2.736886        -1.514502        -1.487551
