19
Iteration:   605charge 0 multiplicity 1
 C         1.786854         2.056493        -0.660993
 C         1.863338         0.987479         0.397267
 C         2.261092         1.054401         1.906988
 C         2.469152        -0.579785         1.841350
 O         3.294369        -1.157219         2.852806
 C         1.037696        -1.150441         1.491168
 C         1.128008        -0.329489         0.207842
 C         2.592723        -0.341859         0.220520
 O         3.276635        -0.979024        -0.870457
 H         1.185491         1.684855        -1.539500
 H         1.326373         2.943279        -0.047387
 H         2.827717         2.340857        -1.029017
 H         3.236825         1.555623         1.980184
 H         1.492737         1.453262         2.685374
 H         3.822866        -0.316534         3.007811
 H         1.048402        -2.131359         1.145940
 H         0.331690        -1.035788         2.281265
 H         0.462063        -0.458193        -0.701214
 H         4.227478        -1.205714        -0.595218
