19
Iteration:   374charge 0 multiplicity 1
 C         1.730804         2.003192        -0.708346
 C         1.908962         0.999027         0.399308
 C         2.162252         1.040123         1.875454
 C         2.429815        -0.479434         1.862722
 O         3.452772        -1.215875         2.726144
 C         0.971393        -1.108191         1.473426
 C         1.074404        -0.363270         0.151889
 C         2.595242        -0.381719         0.223666
 O         3.451648        -0.930554        -0.685683
 H         1.327642         2.898524        -0.167592
 H         2.585414         2.269913        -1.337885
 H         0.912437         1.747186        -1.278599
 H         2.989462         1.641268         2.108431
 H         1.218999         1.343238         2.425732
 H         2.953290        -1.638204         3.464279
 H         0.865256        -2.157243         1.356368
 H         0.294832        -0.705977         2.443339
 H         0.428738        -0.230452        -0.628561
 H         4.262741        -0.330366        -0.618008
