19
Iteration:  3265charge 0 multiplicity 1
 C         1.880552         2.215859        -0.421207
 C         1.953031         0.913376         0.374190
 C         2.315135         0.942405         1.783095
 C         2.423670        -0.601455         1.850011
 O         3.140709        -1.070469         2.993251
 C         0.992815        -1.122113         1.517823
 C         1.128119        -0.457697         0.176692
 C         2.619659        -0.408176         0.130337
 O         3.428996        -0.823201        -1.033247
 H         2.752291         2.936786        -0.385096
 H         1.982853         1.854939        -1.455651
 H         1.022166         2.869969        -0.092727
 H         3.381603         1.352307         1.911905
 H         1.514614         1.467567         2.424666
 H         2.601932        -1.743201         3.479312
 H         0.984020        -2.240315         1.496975
 H         0.145052        -0.699980         2.198149
 H         0.558068        -0.729865        -0.686081
 H         2.964874        -1.531170        -1.429540
