19
Iteration:  1078charge 0 multiplicity 1
 C         1.951525         2.054174        -0.743922
 C         1.886815         0.991291         0.414826
 C         2.423797         1.089536         1.840959
 C         2.446326        -0.482981         1.801639
 O         3.294391        -1.310983         2.448429
 C         1.020078        -1.068000         1.772670
 C         0.908268        -0.189175         0.460271
 C         2.481829        -0.358279         0.208546
 O         3.277598        -1.010676        -0.735909
 H         2.613216         1.554443        -1.399068
 H         0.923281         2.201059        -1.025479
 H         2.429855         3.008669        -0.387261
 H         3.531419         1.412125         1.694404
 H         1.964419         1.543433         2.660541
 H         4.099276        -0.905099         2.736618
 H         1.058027        -2.208997         1.676462
 H         0.463899        -0.765612         2.693339
 H         0.129802        -0.238261        -0.337818
 H         2.973804        -1.877020        -1.021114
