19
Iteration:   382
 C         1.751201         2.024008        -0.675382
 C         1.898345         0.911644         0.379903
 C         2.074452         1.066951         1.878006
 C         2.419362        -0.514828         1.901517
 O         3.460872        -1.214481         2.710761
 C         1.013044        -1.038903         1.484197
 C         1.089813        -0.343201         0.112834
 C         2.591606        -0.374054         0.231571
 O         3.423237        -0.942098        -0.689816
 H         1.567712         2.962710        -0.030111
 H         2.626216         2.285565        -1.354493
 H         0.862824         1.717099        -1.297697
 H         3.090630         1.569308         2.180567
 H         1.332383         1.479545         2.635419
 H         3.090508        -1.292307         3.602584
 H         1.067823        -2.081125         1.216069
 H         0.247447        -0.966209         2.266086
 H         0.394970        -0.498593        -0.712166
 H         4.298321        -0.437802        -0.840382
