19
Iteration:  2398charge 0 multiplicity 1
 C         1.938975         2.098131        -0.571246
 C         1.840674         1.002077         0.405272
 C         2.293919         1.059724         1.862085
 C         2.330226        -0.548438         1.806601
 O         3.353147        -1.407254         2.421431
 C         0.895040        -1.002853         1.659540
 C         0.949178        -0.273494         0.235717
 C         2.430500        -0.409161         0.201242
 O         3.553719        -0.888310        -0.600106
 H         0.917059         2.363281        -0.797835
 H         2.491304         3.019456        -0.297330
 H         2.330462         1.770975        -1.609097
 H         3.310583         1.301428         1.885552
 H         1.669349         1.606861         2.573002
 H         4.226505        -0.933491         2.327885
 H         0.792242        -2.122063         1.652633
 H         0.222301        -0.537668         2.409231
 H         0.271854        -0.235115        -0.684594
 H         3.884302        -1.605460        -0.039695
