19
Iteration:  3443
 C         1.804394         2.175897        -0.489569
 C         1.920058         0.907335         0.335232
 C         2.268667         0.920239         1.814354
 C         2.443757        -0.596745         1.843971
 O         3.113976        -1.107041         2.951983
 C         1.040492        -1.004966         1.514192
 C         1.184416        -0.386715         0.168950
 C         2.620568        -0.478990         0.125455
 O         3.370294        -0.934590        -0.959918
 H         2.777303         2.513678        -0.772430
 H         1.128028         1.997958        -1.300384
 H         1.291008         2.996720         0.027092
 H         3.248808         1.415813         2.023858
 H         1.481385         1.245167         2.583943
 H         3.849630        -0.522306         3.200836
 H         0.777336        -2.113730         1.366517
 H         0.338900        -0.626514         2.224887
 H         0.472014        -0.692528        -0.538690
 H         4.264192        -0.970365        -0.690602
