19
Iteration:  3810charge 0 multiplicity 1
 C         1.847864         2.254711        -0.462549
 C         1.809625         0.933745         0.295596
 C         2.151574         0.889559         1.810667
 C         2.429117        -0.557594         1.822410
 O         3.198656        -1.098715         2.836001
 C         0.939484        -1.055731         1.534501
 C         1.177290        -0.457199         0.137915
 C         2.636635        -0.424376         0.118026
 O         3.615650        -0.854591        -0.746800
 H         2.915464         2.481979        -0.590087
 H         1.403714         2.320141        -1.446290
 H         1.343213         2.987484         0.181924
 H         2.961823         1.613818         2.184988
 H         1.185540         1.111270         2.419289
 H         3.315261        -2.064878         2.682364
 H         1.047737        -2.129717         1.507929
 H         0.052294        -0.866052         2.212595
 H         0.486801        -0.539073        -0.754951
 H         3.142713        -1.633878        -1.147108
