19
Iteration:    94
 C         1.845228         2.122900        -0.552314
 C         1.894626         0.911459         0.342083
 C         2.306292         1.030286         1.768931
 C         2.419043        -0.490465         1.753777
 O         3.400332        -1.144870         2.688710
 C         0.897165        -1.040138         1.595476
 C         0.961632        -0.368727         0.245143
 C         2.503216        -0.472833         0.212265
 O         3.457567        -0.977996        -0.667394
 H         2.463771         1.956959        -1.439780
 H         0.807313         2.346034        -0.856764
 H         2.097294         3.020561         0.121303
 H         3.355528         1.459753         1.961486
 H         1.640007         1.639726         2.402579
 H         3.504490        -2.052637         2.278141
 H         0.763844        -2.190162         1.706423
 H         0.053287        -0.727012         2.380546
 H         0.409100        -0.580207        -0.626093
 H         4.026797        -0.203625        -0.896048
