19
Iteration:  3438charge 0 multiplicity 1
 C         1.794462         2.176683        -0.517112
 C         1.952904         0.936846         0.314458
 C         2.278923         0.935815         1.848418
 C         2.415476        -0.569634         1.852743
 O         3.128001        -1.124237         2.937421
 C         1.053122        -1.067526         1.477153
 C         1.212824        -0.391344         0.153448
 C         2.608039        -0.460545         0.157927
 O         3.335781        -0.945151        -0.915584
 H         2.808614         2.499099        -0.924878
 H         1.030383         2.022679        -1.338032
 H         1.222146         2.944189         0.049125
 H         3.248837         1.377048         2.098549
 H         1.599828         1.296151         2.593622
 H         3.932167        -0.609086         3.111493
 H         0.739720        -2.073794         1.462404
 H         0.245453        -0.639846         2.188476
 H         0.405689        -0.578465        -0.606028
 H         4.323018        -0.842329        -0.677861
