19
Iteration:  1720
 C         1.987026         2.098694        -0.569917
 C         1.950349         0.902483         0.366769
 C         2.493672         0.913775         1.897074
 C         2.496048        -0.606659         1.786180
 O         3.345929        -1.208642         2.689395
 C         0.948728        -0.891783         1.785038
 C         0.920560        -0.251798         0.309582
 C         2.411354        -0.527345         0.139395
 O         3.151005        -0.877131        -0.959586
 H         2.271704         2.908047         0.063742
 H         2.836826         1.997052        -1.215564
 H         1.133841         2.514892        -1.097857
 H         3.625307         1.121763         1.942622
 H         1.975123         1.516982         2.587305
 H         4.310310        -1.063998         2.503428
 H         0.772404        -1.958334         1.932125
 H         0.535794        -0.354188         2.725765
 H         0.226326        -0.410593        -0.559484
 H         2.629038        -1.534295        -1.378935
