19
Iteration:  2029
 C         1.943979         2.055557        -0.640367
 C         1.903510         1.017785         0.404140
 C         2.419184         1.085935         1.855022
 C         2.491816        -0.525730         1.738259
 O         3.290515        -1.477004         2.485364
 C         0.970140        -0.937081         1.761453
 C         0.902213        -0.286400         0.292964
 C         2.428653        -0.381586         0.189569
 O         3.374342        -0.856391        -0.637838
 H         0.945196         2.530134        -0.836258
 H         2.765727         2.838673        -0.511990
 H         2.258633         1.477351        -1.574830
 H         3.391307         1.668014         2.084347
 H         1.734439         1.331622         2.642890
 H         4.185541        -1.514797         2.050378
 H         0.685336        -2.004812         1.703450
 H         0.461378        -0.498753         2.580327
 H         0.044700        -0.052811        -0.336707
 H         2.945396        -1.767230        -0.819557
