19
Iteration:  1129
 C         1.922040         1.932493        -0.554210
 C         1.904281         0.890787         0.427203
 C         2.482488         1.022809         1.771203
 C         2.403728        -0.559064         1.815063
 O         3.329870        -1.251937         2.643105
 C         0.885110        -0.790954         1.826246
 C         0.983660        -0.345035         0.378295
 C         2.433520        -0.486619         0.139136
 O         3.320588        -0.792456        -0.940925
 H         2.235048         1.453201        -1.532843
 H         0.941079         2.459743        -0.641651
 H         2.783734         2.607703        -0.312728
 H         3.491582         1.308778         1.667440
 H         1.824102         1.623362         2.588292
 H         4.149524        -1.265716         2.093891
 H         0.659861        -1.807299         1.854813
 H         0.418401        -0.296648         2.649678
 H         0.305292        -0.506971        -0.402236
 H         3.369848        -1.817994        -1.081264
