19
Iteration:  4255charge 0 multiplicity 1
 C         1.698481         2.015741        -0.628703
 C         1.941790         0.934282         0.395836
 C         2.135258         0.923104         1.962179
 C         2.413641        -0.535661         1.724962
 O         3.119469        -1.336326         2.616345
 C         0.976621        -1.006452         1.514344
 C         1.135387        -0.351454         0.142672
 C         2.677535        -0.313152         0.256675
 O         3.706056        -0.629291        -0.555396
 H         2.626564         2.201297        -1.194756
 H         0.825106         1.697776        -1.302337
 H         1.395684         2.922487        -0.022737
 H         2.985120         1.587536         2.223343
 H         1.255784         1.094720         2.515270
 H         3.471639        -2.093121         2.109997
 H         0.736928        -2.150267         1.538955
 H         0.230851        -0.580436         2.114204
 H         0.602757        -0.617930        -0.867964
 H         3.699473        -1.578055        -0.742307
