19
Iteration:   210
 C         1.809129         2.064407        -0.565598
 C         1.902693         0.817741         0.302516
 C         2.276999         0.970686         1.792164
 C         2.433163        -0.556270         1.827384
 O         3.341496        -1.184401         2.652990
 C         0.880996        -0.937665         1.567530
 C         1.003916        -0.346366         0.256203
 C         2.632199        -0.512112         0.266403
 O         3.474233        -0.788083        -0.766730
 H         0.877324         1.918012        -1.122983
 H         1.712284         2.875051         0.164599
 H         2.637963         2.215304        -1.167199
 H         3.080194         1.629732         1.814079
 H         1.464703         1.400027         2.419606
 H         3.532356        -0.584674         3.410338
 H         0.873980        -1.965450         1.561013
 H         0.236008        -0.617615         2.280918
 H         0.156379        -0.609922        -0.518836
 H         3.886307        -1.689547        -0.634001
