19
Iteration:   837
 C         1.700932         2.052389        -0.564988
 C         1.961338         0.900579         0.365308
 C         2.479129         1.029723         1.813515
 C         2.531849        -0.496646         1.819897
 O         3.230265        -1.274565         2.721887
 C         0.982969        -0.852711         1.675933
 C         1.068556        -0.311648         0.265979
 C         2.549366        -0.458925         0.214582
 O         3.329844        -0.990171        -0.870172
 H         0.758945         2.517655        -0.225896
 H         2.406889         2.896310        -0.580052
 H         1.592751         1.766405        -1.676984
 H         3.511008         1.438127         1.979585
 H         1.866667         1.438574         2.653344
 H         4.088051        -0.764350         2.865332
 H         1.024302        -1.945831         1.438919
 H         0.156557        -0.360891         2.326879
 H         0.247202        -0.268751        -0.578262
 H         2.870250        -1.824972        -1.158428
