19
Iteration:  1493
 C         1.969219         1.936461        -0.645530
 C         1.844772         0.928722         0.417141
 C         2.597969         1.027884         1.807074
 C         2.469260        -0.461434         1.782978
 O         3.320942        -1.435436         2.551978
 C         0.946865        -0.851073         1.811886
 C         0.882914        -0.310660         0.396953
 C         2.355207        -0.430369         0.170113
 O         3.247659        -0.747965        -0.864948
 H         1.438939         2.793736        -0.183256
 H         3.057695         2.201956        -0.661811
 H         1.588241         1.454055        -1.570579
 H         3.578012         1.213838         1.458718
 H         2.321407         1.635743         2.751269
 H         4.227819        -1.256122         2.338414
 H         0.683974        -1.933892         1.985972
 H         0.465066        -0.277105         2.663709
 H        -0.020787        -0.258856        -0.281050
 H         3.525219        -1.695330        -0.634913
