19
Iteration:  1330
 C         1.865987         2.014701        -0.683266
 C         1.926438         0.929158         0.384714
 C         2.519940         1.047600         1.800573
 C         2.472724        -0.504153         1.936951
 O         3.210319        -1.376970         2.688729
 C         0.995399        -0.947709         1.737137
 C         0.984833        -0.290076         0.368255
 C         2.448939        -0.412563         0.181923
 O         3.316904        -0.823315        -0.921471
 H         2.323350         1.757461        -1.649918
 H         0.849411         2.356700        -0.862151
 H         2.208897         2.989792        -0.347331
 H         3.546019         1.364627         1.490178
 H         2.166121         1.679786         2.664859
 H         4.175366        -1.092505         2.709153
 H         0.896135        -2.052601         1.658148
 H         0.234900        -0.707691         2.460965
 H         0.273012        -0.382401        -0.355673
 H         3.084969        -1.736462        -1.004491
