19
Iteration:  2493
 C         1.822172         2.127212        -0.553451
 C         1.959702         0.969918         0.434486
 C         2.404023         0.925681         1.867922
 C         2.427609        -0.607382         1.885878
 O         3.070591        -1.200631         2.915824
 C         0.933231        -1.127193         1.553862
 C         1.137360        -0.386716         0.161978
 C         2.664563        -0.392465         0.186594
 O         3.382280        -0.757853        -1.019693
 H         1.941949         2.987014         0.110102
 H         2.706442         2.160561        -1.175080
 H         0.965487         2.303571        -1.131650
 H         3.422787         1.449052         1.970862
 H         1.640357         1.309726         2.583969
 H         3.951809        -0.813161         3.026320
 H         0.965797        -2.180595         1.494137
 H         0.039342        -0.783134         2.100218
 H         0.495069        -0.449438        -0.774099
 H         3.207811        -1.737775        -1.234334
