19
Iteration:  4825charge 0 multiplicity 1
 C         1.969938         2.123723        -0.537400
 C         1.873744         0.923207         0.399595
 C         2.005680         1.147281         1.901778
 C         2.432849        -0.599269         1.777900
 O         3.327708        -1.314324         2.603986
 C         0.943504        -1.098271         1.576591
 C         1.048469        -0.364815         0.200779
 C         2.621842        -0.338575         0.319649
 O         3.484433        -0.872206        -0.724391
 H         0.984719         2.667102        -0.587272
 H         2.942587         2.626530        -0.259782
 H         2.135795         1.689278        -1.550368
 H         2.979494         1.618368         2.294135
 H         1.079017         1.374757         2.339479
 H         3.596207        -2.008704         1.964629
 H         0.643328        -2.182860         1.486129
 H         0.230222        -0.617766         2.191037
 H         0.498184        -0.586179        -0.622838
 H         3.938112        -0.101733        -1.233157
