19
Iteration:  3703
 C         1.923951         2.045116        -0.506376
 C         1.787174         0.875688         0.357314
 C         2.268595         0.996428         1.815316
 C         2.338807        -0.524318         1.768443
 O         3.293746        -1.209299         2.488401
 C         0.857034        -0.998679         1.597069
 C         1.063070        -0.426348         0.188223
 C         2.538597        -0.477095         0.238691
 O         3.593024        -0.710286        -0.625744
 H         2.592727         2.804273         0.002401
 H         2.406279         1.581946        -1.371258
 H         1.079037         2.684563        -0.832596
 H         3.281941         1.302124         1.568727
 H         1.671591         1.307182         2.709668
 H         2.984636        -1.198713         3.426448
 H         0.824434        -2.045331         1.731185
 H         0.213110        -0.391739         2.337846
 H         0.358619        -0.527614        -0.714853
 H         3.846287        -1.670716        -0.419302
