19
Iteration:  3985charge 0 multiplicity 1
 C         1.851427         2.190010        -0.504517
 C         1.984794         0.945115         0.368807
 C         2.072322         0.917485         1.885044
 C         2.354386        -0.565729         1.841192
 O         3.268985        -1.112690         2.788215
 C         0.965493        -1.170596         1.451412
 C         1.136069        -0.402753         0.084455
 C         2.696736        -0.352468         0.239602
 O         3.517971        -0.791038        -0.773689
 H         2.828124         2.829586        -0.465825
 H         1.655217         1.738868        -1.529963
 H         0.903670         2.859382        -0.231392
 H         2.931247         1.382659         2.385725
 H         1.164237         1.104593         2.396649
 H         2.701137        -1.791132         3.199106
 H         0.992127        -2.235776         1.274713
 H         0.134933        -0.849900         2.170348
 H         0.961335        -0.700564        -0.895978
 H         3.186858        -1.580808        -1.171359
