19
Iteration:  1135
 C         1.892541         1.954959        -0.554322
 C         1.952633         0.874268         0.372963
 C         2.495672         1.010379         1.782481
 C         2.464595        -0.547872         1.832359
 O         3.253721        -1.237185         2.646628
 C         0.954804        -0.842542         1.817626
 C         0.961911        -0.376323         0.387623
 C         2.421810        -0.441341         0.099592
 O         3.316647        -0.801968        -0.882952
 H         2.014336         1.681984        -1.601571
 H         1.050461         2.622211        -0.725235
 H         2.778429         2.562375        -0.386460
 H         3.606217         1.257326         1.674237
 H         1.981366         1.505347         2.561011
 H         4.154361        -1.256823         2.214703
 H         0.690285        -1.952219         2.065299
 H         0.303786        -0.233868         2.542521
 H         0.145248        -0.446231        -0.394931
 H         3.186436        -1.673192        -1.272400
