19
Iteration:   395
 C         1.769868         2.080634        -0.609841
 C         1.851096         0.956344         0.337361
 C         2.153960         1.024881         1.903071
 C         2.417042        -0.520229         1.825977
 O         3.338867        -1.137146         2.630727
 C         1.024741        -1.140242         1.531405
 C         1.115539        -0.403423         0.215479
 C         2.644681        -0.384525         0.278396
 O         3.410736        -0.963226        -0.720443
 H         1.669692         3.115958        -0.154773
 H         2.741143         2.029962        -1.170077
 H         0.995316         2.073517        -1.331328
 H         3.026542         1.674976         2.007971
 H         1.225703         1.368169         2.471963
 H         3.281887        -0.788899         3.557474
 H         1.166873        -2.166786         1.405120
 H         0.021944        -0.890597         2.056873
 H         0.734921        -0.714395        -0.684233
 H         4.192321        -0.447721        -0.752829
