19
Iteration:  1894charge 0 multiplicity 1
 C         1.985311         2.110724        -0.694865
 C         1.966431         0.987248         0.427362
 C         2.459194         0.924013         1.919839
 C         2.438390        -0.607829         1.863322
 O         3.396902        -1.320942         2.638064
 C         0.889211        -0.951898         1.749229
 C         0.983996        -0.221971         0.343760
 C         2.415516        -0.398470         0.149342
 O         3.233231        -0.926786        -0.913894
 H         2.449510         1.723802        -1.609878
 H         1.057766         2.656509        -0.931647
 H         2.533240         3.036828        -0.339840
 H         3.431905         1.357056         2.182864
 H         1.622157         1.292845         2.471497
 H         4.002392        -0.662371         3.059278
 H         0.779726        -1.964739         1.538498
 H         0.208366        -0.715707         2.585001
 H         0.320722        -0.264010        -0.486089
 H         2.627007        -1.588338        -1.399764
