19
Iteration:   457charge 0 multiplicity 1
 C         1.731520         2.084290        -0.605968
 C         1.895372         0.894305         0.396754
 C         2.164449         0.981823         1.834916
 C         2.386599        -0.545379         1.824067
 O         3.225462        -1.112916         2.786271
 C         1.020774        -1.106860         1.572723
 C         1.095843        -0.452186         0.161702
 C         2.607428        -0.349167         0.201318
 O         3.516566        -0.890945        -0.768652
 H         1.559361         3.051487        -0.022635
 H         2.705155         2.194652        -1.136442
 H         0.893792         2.036131        -1.375040
 H         3.243327         1.413263         1.873703
 H         1.457487         1.454832         2.489790
 H         4.106598        -1.145263         2.341645
 H         1.013782        -2.268224         1.640504
 H         0.295887        -0.639651         2.268035
 H         0.432381        -0.571529        -0.661031
 H         4.361826        -0.533038        -0.568156
