19
Iteration:   356
 C         1.665209         2.047371        -0.711397
 C         1.923155         0.939520         0.392429
 C         2.245034         1.015971         1.885850
 C         2.422949        -0.567598         1.786573
 O         3.271900        -1.115691         2.642915
 C         0.967252        -1.034645         1.633393
 C         1.103215        -0.402162         0.250630
 C         2.613620        -0.368120         0.181276
 O         3.519476        -0.872323        -0.680261
 H         1.263367         2.954385        -0.313305
 H         2.645335         2.298297        -1.121876
 H         1.101240         1.515454        -1.545863
 H         3.234547         1.431442         2.206223
 H         1.574424         1.341230         2.661755
 H         2.962925        -2.028513         2.815318
 H         1.002348        -2.173980         1.445014
 H         0.181459        -0.841829         2.284085
 H         0.412038        -0.698659        -0.601841
 H         4.450430        -0.528485        -0.502776
