19
Iteration:   283charge 0 multiplicity 1
 C         1.781273         2.050920        -0.607626
 C         1.927611         0.991725         0.375240
 C         2.200787         1.065087         1.907752
 C         2.442678        -0.514154         1.750724
 O         3.251110        -1.187231         2.657395
 C         0.985710        -1.033204         1.600640
 C         1.061095        -0.426848         0.263139
 C         2.580373        -0.385849         0.164148
 O         3.520575        -1.024751        -0.683961
 H         0.688305         1.988155        -0.872283
 H         2.093127         2.998879        -0.147737
 H         2.436578         1.701849        -1.470550
 H         3.187419         1.620941         2.247200
 H         1.329778         1.373273         2.526942
 H         4.011074        -0.611619         2.571224
 H         0.971032        -2.160589         1.423125
 H         0.154065        -0.740236         2.413905
 H         0.254201        -0.447220        -0.557822
 H         3.549260        -0.297187        -1.398597
