19
Iteration:  2349charge 0 multiplicity 1
 C         1.805974         2.088116        -0.509847
 C         1.921898         0.929650         0.433730
 C         2.420498         1.045374         1.873478
 C         2.409351        -0.516092         1.760214
 O         3.253254        -1.318487         2.604778
 C         0.878961        -1.026323         1.549257
 C         1.060858        -0.283527         0.230431
 C         2.541267        -0.338015         0.233871
 O         3.437950        -0.954848        -0.779619
 H         0.888038         2.285819        -1.152728
 H         2.000182         3.068019        -0.040536
 H         2.673024         2.057216        -1.114938
 H         3.446327         1.609995         1.816271
 H         1.686346         1.442852         2.580401
 H         3.904924        -0.728551         2.983063
 H         0.900358        -2.086223         1.328793
 H         0.140334        -0.834625         2.306309
 H         0.340861        -0.290895        -0.524071
 H         3.265537        -1.928838        -0.489081
