19
Iteration:  3940
 C         1.823870         2.033242        -0.608923
 C         1.814116         0.925677         0.417793
 C         2.258744         0.966105         1.854792
 C         2.390701        -0.663043         1.771555
 O         3.151496        -1.275421         2.666596
 C         0.949516        -1.009649         1.506348
 C         1.017962        -0.351236         0.129856
 C         2.517941        -0.404391         0.222121
 O         3.683847        -0.603693        -0.533523
 H         2.510779         2.923119        -0.272748
 H         2.186154         1.674599        -1.651209
 H         0.730622         2.426385        -0.842313
 H         3.289423         1.368777         1.652746
 H         1.841850         1.477066         2.659085
 H         3.953134        -1.676595         2.313879
 H         1.047271        -2.119637         1.341555
 H         0.187113        -0.749354         2.267545
 H         0.443177        -0.680120        -0.690020
 H         3.937625        -1.511141        -0.664868
