19
Iteration:  3772
 C         1.761062         1.961140        -0.607998
 C         1.965405         0.995422         0.438184
 C         2.296016         1.053555         1.932747
 C         2.356336        -0.496156         1.815336
 O         3.168446        -1.265062         2.750231
 C         0.921277        -1.098396         1.442798
 C         1.071530        -0.330041         0.123789
 C         2.620465        -0.335980         0.205653
 O         3.580915        -0.787254        -0.642265
 H         2.660944         2.624301        -0.673405
 H         1.633750         1.364224        -1.577619
 H         0.935878         2.715144        -0.470626
 H         3.284266         1.329623         2.194183
 H         1.580740         1.230103         2.655206
 H         3.944891        -1.499539         2.227556
 H         1.049682        -2.199108         1.158801
 H        -0.031218        -0.958002         1.898723
 H         0.316412        -0.102858        -0.571851
 H         3.504136        -1.634319        -1.007610
