19
Iteration:  1237charge 0 multiplicity 1
 C         1.911198         2.204926        -0.487131
 C         1.812395         0.932753         0.326442
 C         2.413552         1.041130         1.715582
 C         2.473918        -0.504916         1.738884
 O         3.344932        -1.229967         2.598763
 C         0.981556        -0.972404         1.717923
 C         0.889133        -0.343478         0.345492
 C         2.397119        -0.507751         0.118119
 O         3.392603        -1.034791        -0.722114
 H         1.167480         2.478353        -1.232598
 H         2.041778         3.061726         0.155104
 H         2.820561         2.265995        -1.061443
 H         3.369961         1.524408         1.657125
 H         1.883295         1.593706         2.520566
 H         4.210553        -0.839145         2.566115
 H         0.824625        -2.045224         1.747616
 H         0.448862        -0.472882         2.608091
 H         0.142680        -0.518172        -0.418253
 H         3.506548        -2.007183        -0.524336
