19
Iteration:   848
 C         1.691910         2.091376        -0.612202
 C         2.013843         0.937025         0.338750
 C         2.422702         0.965514         1.864401
 C         2.491861        -0.536800         1.802544
 O         3.282734        -1.261000         2.740232
 C         1.005876        -0.836756         1.652948
 C         1.060547        -0.275254         0.297606
 C         2.568528        -0.508956         0.175289
 O         3.268698        -0.942498        -0.845091
 H         0.645981         2.358080        -0.621038
 H         2.391109         2.920409        -0.462712
 H         1.860124         1.644989        -1.665830
 H         3.417130         1.474176         1.814621
 H         1.722523         1.353414         2.651305
 H         4.231222        -1.141106         2.740036
 H         0.661223        -1.900657         1.816985
 H         0.332661        -0.359252         2.484855
 H         0.310333        -0.241460        -0.607864
 H         3.312948        -1.871278        -0.950524
