19
Iteration:  3377
 C         1.845930         2.094797        -0.661108
 C         1.891821         0.977434         0.352284
 C         2.306914         1.003603         1.835230
 C         2.382734        -0.541779         1.730733
 O         3.289223        -1.407878         2.473866
 C         0.874678        -0.907945         1.692621
 C         0.967472        -0.371743         0.223638
 C         2.435090        -0.390402         0.165675
 O         3.670269        -0.874822        -0.358185
 H         2.777612         2.668780        -0.706407
 H         1.552487         1.484747        -1.531296
 H         1.084717         2.910766        -0.608560
 H         3.276426         1.477458         2.135760
 H         1.474839         1.279408         2.566443
 H         4.163235        -1.116397         2.119871
 H         0.554908        -2.030389         1.566771
 H         0.149289        -0.292383         2.218931
 H         0.260471        -0.594879        -0.570640
 H         3.675332        -0.624051        -1.343713
