19
Iteration:   284
 C         1.776830         2.050834        -0.613739
 C         1.927870         0.986822         0.373122
 C         2.204864         1.055170         1.912376
 C         2.438997        -0.512395         1.747367
 O         3.243243        -1.178618         2.651937
 C         0.982995        -1.034286         1.607574
 C         1.074363        -0.427334         0.265568
 C         2.579055        -0.391529         0.166743
 O         3.523920        -1.022191        -0.686591
 H         0.679888         2.041306        -0.883650
 H         2.102031         2.985210        -0.142444
 H         2.419270         1.731653        -1.446083
 H         3.161265         1.589093         2.245534
 H         1.341692         1.365760         2.524996
 H         4.034359        -0.639216         2.561039
 H         0.969125        -2.135107         1.441437
 H         0.146131        -0.721690         2.444242
 H         0.253290        -0.432782        -0.549806
 H         3.574646        -0.292322        -1.390952
