19
Iteration:   500
 C         1.665990         1.939125        -0.675827
 C         1.874834         0.947622         0.324029
 C         2.250357         1.061469         1.789740
 C         2.403046        -0.538582         1.851965
 O         3.186232        -1.354368         2.723613
 C         1.057306        -1.027082         1.611998
 C         1.095948        -0.291762         0.243851
 C         2.615747        -0.346498         0.214235
 O         3.578438        -0.810152        -0.623056
 H         0.815501         2.575623        -0.370429
 H         2.546239         2.487799        -0.894554
 H         1.355397         1.301199        -1.534447
 H         3.256191         1.481475         2.044087
 H         1.542838         1.574130         2.364896
 H         4.099368        -1.304465         2.325164
 H         0.847853        -2.173164         1.331664
 H         0.213647        -0.661342         2.317739
 H         0.429857        -0.468616        -0.539643
 H         3.873525        -0.099462        -1.206508
