19
Iteration:  2300charge 0 multiplicity 1
 C         1.867117         2.104613        -0.477007
 C         1.919358         0.902161         0.402159
 C         2.375648         1.004733         1.758893
 C         2.490206        -0.545153         1.802874
 O         3.068793        -1.292027         2.863177
 C         1.051187        -0.986131         1.674696
 C         1.053043        -0.334438         0.286519
 C         2.572604        -0.441851         0.109395
 O         3.420730        -0.852810        -1.000449
 H         1.264695         1.948242        -1.336272
 H         1.304366         2.908375         0.005849
 H         2.854942         2.587215        -0.741354
 H         3.436477         1.316553         1.834853
 H         1.648659         1.553032         2.509608
 H         4.007714        -1.078169         3.065838
 H         0.762390        -2.081277         1.716760
 H         0.294215        -0.408311         2.309998
 H         0.196747        -0.443525        -0.394955
 H         3.217196        -1.420474        -1.711090
