19
Iteration:  1452
 C         1.886130         1.938806        -0.655772
 C         1.919072         0.907520         0.388504
 C         2.485226         1.057997         1.840780
 C         2.486472        -0.600493         1.808154
 O         3.350584        -1.402553         2.510176
 C         0.981718        -0.856026         1.802106
 C         0.874971        -0.169569         0.407011
 C         2.397282        -0.398405         0.179494
 O         3.348552        -0.867552        -0.736282
 H         2.188512         2.907461        -0.254461
 H         2.516592         1.770540        -1.526238
 H         0.944287         2.071804        -1.150289
 H         3.502759         1.546748         1.680122
 H         1.937464         1.661679         2.560445
 H         4.236102        -1.232211         2.102681
 H         0.656670        -1.952658         1.705588
 H         0.328350        -0.405090         2.698313
 H        -0.054144        -0.117122        -0.307764
 H         2.958011        -1.477065        -1.374198
