19
Iteration:   267charge 0 multiplicity 1
 C         1.795229         2.033904        -0.656765
 C         1.904447         0.948877         0.386804
 C         2.208619         1.098540         1.864131
 C         2.440239        -0.513964         1.864117
 O         3.364049        -1.254790         2.693480
 C         1.025385        -1.122383         1.515562
 C         1.014353        -0.296265         0.181375
 C         2.530497        -0.369873         0.222293
 O         3.428034        -0.973948        -0.621933
 H         0.823137         2.164169        -1.110459
 H         1.942625         3.075191        -0.282732
 H         2.532536         1.945399        -1.491803
 H         3.084928         1.706261         1.948611
 H         1.393747         1.500130         2.498105
 H         3.996150        -0.725365         3.194191
 H         1.157224        -2.185540         1.382780
 H         0.334580        -0.931165         2.220719
 H         0.426194        -0.454756        -0.666944
 H         3.383919        -0.773416        -1.602835
