19
Iteration:  2705charge 0 multiplicity 1
 C         1.840835         2.186011        -0.577845
 C         1.918838         1.017676         0.413250
 C         2.297446         0.969932         1.894919
 C         2.373128        -0.532257         1.831476
 O         3.155253        -1.165283         2.815299
 C         0.976712        -1.130735         1.522219
 C         1.151715        -0.387152         0.193035
 C         2.645616        -0.409701         0.209862
 O         3.458635        -0.864631        -0.800909
 H         2.676338         2.772712        -0.669975
 H         1.547498         1.754528        -1.512179
 H         1.040663         2.865113        -0.274570
 H         3.304208         1.366698         1.839945
 H         1.578418         1.456854         2.607369
 H         3.250811        -2.121424         2.746758
 H         1.246677        -2.182326         1.252096
 H         0.049165        -1.082194         2.178269
 H         0.766657        -0.774028        -0.810893
 H         3.040895        -1.115736        -1.663533
