19
Iteration:  2049charge 0 multiplicity 1
 C         1.987099         2.011775        -0.596214
 C         1.887790         0.958988         0.434888
 C         2.470991         0.973484         1.901614
 C         2.377547        -0.537348         1.798155
 O         3.292412        -1.291218         2.480560
 C         0.935424        -0.975124         1.668349
 C         0.882784        -0.193937         0.377551
 C         2.444375        -0.437782         0.192126
 O         3.366690        -0.876960        -0.760070
 H         1.272677         2.880753        -0.429751
 H         2.957914         2.650554        -0.640532
 H         1.769374         1.553028        -1.667102
 H         3.568612         1.205496         1.931936
 H         2.027885         1.537701         2.691324
 H         4.118226        -0.871689         2.242838
 H         0.892479        -2.027829         1.399293
 H         0.219385        -0.703646         2.473920
 H         0.148204        -0.282679        -0.448070
 H         3.409908        -1.834936        -0.645706
