19
Iteration:  1124charge 0 multiplicity 1
 C         1.949037         1.940668        -0.595620
 C         1.869364         0.889193         0.450665
 C         2.456227         1.015232         1.789885
 C         2.396022        -0.549745         1.811925
 O         3.376242        -1.265486         2.636053
 C         0.864537        -0.783509         1.823628
 C         0.970787        -0.308709         0.361416
 C         2.462555        -0.529128         0.194201
 O         3.312021        -0.796710        -0.966309
 H         2.283733         1.400339        -1.454480
 H         0.960925         2.377338        -0.596628
 H         2.665074         2.689997        -0.290084
 H         3.517725         1.455740         1.741079
 H         1.911238         1.607678         2.493735
 H         4.155114        -1.280493         2.086283
 H         0.600445        -1.904239         1.740351
 H         0.379129        -0.216768         2.674712
 H         0.228191        -0.481367        -0.482053
 H         3.428487        -1.721707        -0.909843
