19
Iteration:  1818charge 0 multiplicity 1
 C         1.824218         2.117037        -0.541102
 C         2.099642         0.935522         0.325368
 C         2.521670         0.942037         1.742291
 C         2.444397        -0.549673         1.750504
 O         3.266421        -1.392678         2.479479
 C         0.857124        -0.781711         1.829096
 C         0.901884        -0.281983         0.382959
 C         2.427702        -0.513285         0.188703
 O         3.380957        -0.861840        -0.732447
 H         2.674507         2.275979        -1.151537
 H         1.051208         1.893794        -1.240676
 H         1.694203         3.008012         0.090495
 H         3.585265         1.473098         1.965861
 H         1.823986         1.210941         2.588656
 H         4.167363        -1.320528         2.093363
 H         0.678705        -1.802802         2.099340
 H         0.292113        -0.154245         2.563961
 H         0.328851        -0.145237        -0.481879
 H         3.194643        -1.770691        -0.865254
