19
Iteration:  4071charge 0 multiplicity 1
 C         1.747103         2.023547        -0.546972
 C         1.851752         0.871963         0.321080
 C         2.217846         1.008828         2.013690
 C         2.364125        -0.519172         1.816550
 O         3.185921        -1.319691         2.683679
 C         0.845996        -0.968810         1.451079
 C         1.048187        -0.501540         0.102059
 C         2.625032        -0.399484         0.169436
 O         3.774595        -0.597618        -0.610344
 H         2.664112         2.592249        -0.515303
 H         1.612908         1.811433        -1.598970
 H         1.049749         2.743670        -0.315973
 H         3.168675         1.647379         2.011216
 H         1.513772         1.179570         2.844110
 H         3.900933        -1.765784         2.207969
 H         0.679201        -2.095029         1.511978
 H         0.083174        -0.476917         1.995146
 H         0.426481        -0.500100        -0.778597
 H         3.908833        -1.619056        -0.697458
