19
Iteration:   536
 C         1.775227         2.007737        -0.625052
 C         1.790102         0.882679         0.352654
 C         2.345950         0.986571         1.853698
 C         2.362013        -0.546798         1.776064
 O         3.300522        -1.213855         2.573439
 C         0.960851        -0.986565         1.647628
 C         1.030064        -0.467596         0.149255
 C         2.510388        -0.421483         0.215244
 O         3.559661        -0.826405        -0.542134
 H         0.726573         2.448214        -0.937700
 H         2.315734         2.949833        -0.172988
 H         2.251508         1.891352        -1.611770
 H         3.470643         1.271289         1.756857
 H         1.807699         1.485210         2.685060
 H         4.011316        -0.541594         2.770575
 H         0.752633        -2.060128         1.641132
 H         0.177730        -0.482249         2.300468
 H         0.272159        -0.694237        -0.616164
 H         3.926081        -0.074273        -0.991436
