19
Iteration:  4026charge 0 multiplicity 1
 C         1.862091         2.230773        -0.494793
 C         1.902294         1.028488         0.374145
 C         2.170804         0.977285         1.951592
 C         2.347369        -0.551251         1.817470
 O         3.122749        -1.161895         2.813864
 C         1.027358        -1.284231         1.411766
 C         1.110250        -0.421045         0.100725
 C         2.600803        -0.373861         0.112858
 O         3.612982        -0.843413        -0.765218
 H         2.768761         2.731772        -0.683688
 H         1.208874         2.067954        -1.335338
 H         1.359379         2.876581         0.135412
 H         3.097463         1.589793         2.246854
 H         1.241398         1.289553         2.432794
 H         3.454505        -0.684516         3.596947
 H         1.540693        -2.322071         1.228094
 H         0.196202        -1.376214         2.008586
 H         0.654091        -0.607464        -0.806890
 H         3.230362        -1.733412        -1.133293
