19
Iteration:  4543
 C         1.781022         2.146958        -0.449522
 C         1.938429         0.905040         0.356877
 C         2.199182         0.924327         1.821074
 C         2.462428        -0.575723         1.879327
 O         3.114581        -1.318024         2.766988
 C         0.977624        -0.982046         1.568946
 C         1.103561        -0.355014         0.180923
 C         2.670101        -0.450952         0.198580
 O         3.521420        -0.743264        -0.932601
 H         0.813875         2.797959        -0.379090
 H         2.609138         2.883909        -0.254067
 H         1.914307         2.014350        -1.564067
 H         3.118532         1.432482         2.144309
 H         1.424778         1.178123         2.527056
 H         3.811928        -0.724163         3.106868
 H         0.870312        -2.101463         1.460290
 H         0.128380        -0.614153         2.116013
 H         0.361751        -0.594574        -0.663576
 H         3.954579        -1.628550        -0.768871
