19
Iteration:  1646charge 0 multiplicity 1
 C         1.825051         2.020590        -0.682364
 C         2.062016         0.988641         0.395663
 C         2.571906         0.978951         1.958580
 C         2.438877        -0.550081         1.862152
 O         3.369534        -1.462187         2.436173
 C         0.883235        -0.795170         1.848104
 C         0.920468        -0.184851         0.324204
 C         2.430877        -0.423099         0.199364
 O         3.229463        -0.922295        -0.863277
 H         0.754282         2.470919        -0.624718
 H         2.689430         2.797387        -0.759023
 H         1.819734         1.568275        -1.730242
 H         3.620198         1.300818         2.092124
 H         2.043758         1.412741         2.917993
 H         4.199809        -0.922795         2.441593
 H         0.550256        -1.861771         1.807795
 H         0.372694        -0.174336         2.646959
 H         0.091157         0.046201        -0.432504
 H         3.452657        -1.896577        -0.648981
