19
Iteration:  4072charge 0 multiplicity 1
 C         1.745048         2.020927        -0.553145
 C         1.854122         0.869578         0.315734
 C         2.219201         1.015414         2.023276
 C         2.359710        -0.518877         1.817370
 O         3.188238        -1.324934         2.672684
 C         0.844810        -0.971270         1.449436
 C         1.048736        -0.510713         0.106689
 C         2.627554        -0.398528         0.174845
 O         3.776963        -0.593309        -0.605291
 H         2.697200         2.615549        -0.497604
 H         1.631657         1.769056        -1.613281
 H         1.002961         2.781009        -0.339058
 H         3.153280         1.624782         2.035750
 H         1.526306         1.212581         2.823979
 H         3.879750        -1.803273         2.202876
 H         0.697852        -2.053668         1.538217
 H         0.078359        -0.431891         2.003039
 H         0.368989        -0.482373        -0.779126
 H         3.907371        -1.594642        -0.703123
