19
Iteration:  2347
 C         1.802977         2.089089        -0.507386
 C         1.915943         0.917897         0.425444
 C         2.439789         1.033699         1.867814
 C         2.414104        -0.528965         1.771186
 O         3.249004        -1.296733         2.622010
 C         0.872185        -1.034416         1.514106
 C         1.079413        -0.275879         0.258685
 C         2.529230        -0.347102         0.227949
 O         3.435233        -0.949451        -0.783966
 H         0.907830         2.260605        -1.121451
 H         1.949217         3.057708        -0.020794
 H         2.681961         2.093912        -1.152988
 H         3.489405         1.579562         1.790604
 H         1.704023         1.485017         2.647092
 H         3.945463        -0.704469         3.011446
 H         0.839217        -2.161090         1.298317
 H         0.100989        -0.774691         2.282316
 H         0.342372        -0.280448        -0.532484
 H         3.219298        -1.857782        -0.554202
