19
Iteration:  1343
 C         1.844517         2.186755        -0.596050
 C         1.838771         0.927976         0.328152
 C         2.564138         1.003379         1.746497
 C         2.472576        -0.518392         1.866702
 O         3.271725        -1.325928         2.775545
 C         1.011692        -0.934937         1.693518
 C         0.946629        -0.309937         0.288539
 C         2.494653        -0.518977         0.172879
 O         3.242220        -0.879618        -0.848434
 H         2.513329         2.086165        -1.483627
 H         0.820311         2.280977        -0.930477
 H         2.316216         2.900166         0.051246
 H         3.717718         1.194801         1.621810
 H         2.155056         1.713393         2.456831
 H         4.133436        -0.946825         2.859138
 H         1.012014        -2.022702         1.574453
 H         0.379690        -0.539491         2.367909
 H         0.175802        -0.521165        -0.480687
 H         3.237304        -1.872120        -1.116649
