19
Iteration:  4579charge 0 multiplicity 1
 C         1.694740         2.071805        -0.660302
 C         1.994653         1.005038         0.410302
 C         2.528242         0.910117         1.932219
 C         2.405850        -0.582839         1.796004
 O         3.035328        -1.331979         2.790718
 C         1.075181        -1.102899         1.409246
 C         1.060992        -0.326131         0.210805
 C         2.549501        -0.322862         0.208347
 O         3.424655        -0.674540        -0.746630
 H         0.627603         1.976790        -0.911873
 H         2.045327         3.069266        -0.358423
 H         2.293567         1.581076        -1.454510
 H         3.508705         1.211179         1.997015
 H         1.996828         1.291408         2.781000
 H         3.558293        -0.805594         3.428296
 H         1.288970        -2.049832         1.082168
 H         0.185553        -1.149906         2.065701
 H         0.436694        -0.228119        -0.606815
 H         3.753132        -1.594056        -0.652295
