19
Iteration:  4844
 C         1.951565         2.166474        -0.547220
 C         1.853733         0.974475         0.367042
 C         2.195121         0.894649         1.908619
 C         2.364114        -0.581972         1.776550
 O         3.320514        -1.235515         2.619528
 C         0.914132        -1.060883         1.559292
 C         1.049250        -0.366614         0.153938
 C         2.472000        -0.380336         0.202334
 O         3.534790        -0.866728        -0.564911
 H         0.952178         2.566410        -0.685085
 H         2.622899         2.905557        -0.065313
 H         2.469780         1.923532        -1.503853
 H         3.081602         1.543188         2.106676
 H         1.453273         1.235142         2.619947
 H         3.978516        -1.507019         1.931362
 H         0.985700        -2.097675         1.377200
 H         0.106882        -0.788352         2.247385
 H         0.394970        -0.437908        -0.691132
 H         3.441984        -0.444513        -1.491672
