19
Iteration:   861
 C         1.771842         2.043645        -0.662739
 C         1.995134         0.978694         0.387886
 C         2.447635         1.018371         1.815156
 C         2.471641        -0.608742         1.816150
 O         3.299695        -1.281743         2.733818
 C         0.954269        -0.911240         1.783730
 C         1.019292        -0.284125         0.298362
 C         2.466058        -0.389338         0.155459
 O         3.330187        -0.934250        -0.895613
 H         0.661827         2.316884        -0.739548
 H         2.242489         3.014481        -0.390650
 H         2.206852         1.821214        -1.737252
 H         3.347822         1.402590         2.082048
 H         1.684426         1.493680         2.501114
 H         4.186639        -1.097921         2.314025
 H         0.657020        -2.020332         1.742225
 H         0.438864        -0.234301         2.472644
 H         0.262992        -0.502503        -0.477512
 H         3.492957        -1.890607        -0.553208
