19
Iteration:  4708charge 0 multiplicity 1
 C         1.725857         2.142606        -0.557778
 C         1.945205         0.998622         0.413352
 C         2.181604         1.043115         2.061468
 C         2.418658        -0.533437         1.881171
 O         3.256829        -1.272818         2.720355
 C         0.928288        -1.045709         1.460232
 C         1.139909        -0.348597         0.072735
 C         2.635473        -0.379497         0.238268
 O         3.575552        -0.916380        -0.758592
 H         0.819099         2.775676        -0.406314
 H         2.588178         2.778408        -0.645208
 H         1.625743         1.812950        -1.603601
 H         3.077722         1.614657         2.139247
 H         1.261178         1.416247         2.605165
 H         3.660178        -2.043652         2.323458
 H         0.816188        -2.145637         1.288904
 H         0.085949        -0.699701         2.109216
 H         0.693732        -0.456151        -0.870839
 H         3.137444        -1.530487        -1.394824
