19
Iteration:   591
 C         1.839769         2.077191        -0.617055
 C         1.903758         0.984334         0.405865
 C         2.222377         0.969857         1.865131
 C         2.469165        -0.532864         1.746958
 O         3.262984        -1.104774         2.720125
 C         1.045569        -1.171271         1.589818
 C         1.073868        -0.359057         0.252146
 C         2.628407        -0.358856         0.185461
 O         3.302255        -0.971891        -0.785273
 H         0.997659         1.943414        -1.389705
 H         1.558063         3.182068        -0.379332
 H         2.745183         2.147564        -1.191264
 H         3.108446         1.600782         2.197434
 H         1.453265         1.178933         2.530929
 H         3.762286        -0.615273         3.372936
 H         1.006852        -2.273050         1.581748
 H         0.199965        -0.876299         2.316865
 H         0.478853        -0.538334        -0.743554
 H         4.217682        -0.822977        -0.642060
