19
Iteration:  3911charge 0 multiplicity 1
 C         1.791252         1.974579        -0.707439
 C         1.938721         0.928322         0.379247
 C         2.276651         1.032066         1.884525
 C         2.357067        -0.604049         1.853513
 O         3.193462        -1.437786         2.512667
 C         0.793120        -1.015324         1.581429
 C         1.007287        -0.441341         0.178645
 C         2.576744        -0.339113         0.233594
 O         3.731523        -0.536215        -0.513181
 H         2.375064         2.818089        -0.342407
 H         2.171092         1.539990        -1.582175
 H         0.805668         2.440872        -0.799312
 H         3.237713         1.540556         1.880564
 H         1.545758         1.533825         2.652593
 H         3.982946        -1.034132         2.899059
 H         0.797572        -2.054460         1.681970
 H        -0.077040        -0.581949         2.249142
 H         0.507446        -0.575421        -0.747656
 H         3.739432        -1.446068        -0.968117
