19
Iteration:  2419
 C         1.870035         1.995574        -0.541716
 C         1.863544         0.941186         0.397366
 C         2.482407         0.987982         1.909816
 C         2.382736        -0.549125         1.739470
 O         3.260568        -1.263368         2.475796
 C         0.853997        -0.959306         1.539972
 C         0.961245        -0.339383         0.227110
 C         2.475003        -0.386693         0.231721
 O         3.482282        -0.806577        -0.561472
 H         1.000180         2.627855        -0.594344
 H         2.768539         2.623605        -0.366324
 H         2.028404         1.587197        -1.614317
 H         3.445516         1.329171         1.920830
 H         1.855034         1.265115         2.731476
 H         4.126943        -0.844815         2.521822
 H         0.956555        -2.031149         1.440233
 H         0.108287        -0.709508         2.257867
 H         0.193786        -0.254842        -0.626961
 H         3.728428        -1.736535        -0.589081
