19
Iteration:   104charge 0 multiplicity 1
 C         1.820330         2.019163        -0.492076
 C         1.876279         0.884643         0.343033
 C         2.218381         1.013580         1.805188
 C         2.437123        -0.533398         1.826963
 O         3.341702        -1.127358         2.632901
 C         0.917750        -0.972971         1.603563
 C         1.059091        -0.348624         0.221686
 C         2.594034        -0.386874         0.210978
 O         3.432922        -1.009144        -0.691280
 H         2.459963         1.941643        -1.384675
 H         0.843808         2.252257        -0.931704
 H         2.284577         2.925743        -0.032485
 H         3.251467         1.411588         1.886046
 H         1.479562         1.419408         2.534383
 H         3.840308        -1.844746         2.183877
 H         0.758623        -2.108694         1.633454
 H         0.215379        -0.283870         2.250902
 H         0.222984        -0.319819        -0.467052
 H         3.945239        -0.305558        -1.210672
