19
Iteration:  4190charge 0 multiplicity 1
 C         1.868590         2.220994        -0.349501
 C         1.865100         0.894078         0.340920
 C         2.089711         0.925826         1.891964
 C         2.411757        -0.594562         1.782772
 O         3.036334        -1.110775         2.885797
 C         1.050065        -1.207960         1.439981
 C         1.150683        -0.427846         0.128797
 C         2.684280        -0.375938         0.105643
 O         3.625519        -0.806864        -0.897674
 H         2.496881         2.890032         0.190699
 H         2.105987         2.301559        -1.424857
 H         0.904330         2.699288        -0.259993
 H         3.023013         1.564628         2.104342
 H         1.278083         1.136483         2.642452
 H         3.900759        -0.659931         2.996566
 H         0.961275        -2.396374         1.491034
 H         0.342667        -0.845496         2.142684
 H         0.447518        -0.602282        -0.764895
 H         3.281619        -1.603141        -1.263976
