19
Iteration:  2252
 C         1.923978         2.075310        -0.694817
 C         2.003975         0.971538         0.422974
 C         2.379247         0.942035         1.885080
 C         2.379415        -0.677704         1.851726
 O         3.274637        -1.310330         2.673706
 C         0.948938        -1.020834         1.690194
 C         0.954731        -0.217057         0.291672
 C         2.494577        -0.360786         0.187182
 O         3.344235        -0.797506        -0.816503
 H         2.442896         1.629535        -1.645282
 H         0.897856         2.367414        -1.005821
 H         2.496585         2.958224        -0.494110
 H         3.355724         1.310775         2.027929
 H         1.721100         1.377330         2.565146
 H         3.953159        -0.649057         2.554850
 H         0.739713        -1.999392         1.329123
 H         0.351801        -0.830655         2.571012
 H         0.352828        -0.170797        -0.630438
 H         3.533654        -1.801136        -0.836833
