19
Iteration:  1217
 C         1.794605         2.209062        -0.497983
 C         1.974550         0.929162         0.325029
 C         2.360040         0.966489         1.743594
 C         2.449729        -0.585871         1.830633
 O         3.426813        -1.219248         2.626736
 C         0.899528        -0.870725         1.691077
 C         1.012000        -0.295376         0.261735
 C         2.575175        -0.435699         0.172258
 O         3.271928        -1.116247        -0.815157
 H         0.853914         2.158022        -1.052134
 H         1.858711         2.976831         0.265281
 H         2.583012         2.456546        -1.241334
 H         3.286904         1.445068         2.009811
 H         1.634638         1.532127         2.514673
 H         4.143420        -0.560381         2.799486
 H         0.678197        -1.913707         1.671810
 H         0.258638        -0.369427         2.454127
 H         0.201375        -0.306114        -0.561995
 H         3.307928        -2.050334        -0.416953
