19
Iteration:  1306
 C         1.847924         1.830504        -0.784658
 C         2.026075         0.955322         0.446203
 C         2.455584         0.993750         1.962471
 C         2.529661        -0.563118         1.760256
 O         3.200110        -1.344286         2.577251
 C         1.047787        -0.890453         1.766248
 C         0.984234        -0.229116         0.365730
 C         2.443521        -0.420203         0.209167
 O         3.301465        -0.722825        -0.827408
 H         1.861325         1.232986        -1.692537
 H         0.897903         2.390731        -0.745244
 H         2.489412         2.714584        -0.962736
 H         3.378576         1.412944         2.273345
 H         1.641664         1.390451         2.693172
 H         4.160328        -1.215719         2.582459
 H         0.639126        -1.898195         1.918415
 H         0.386265        -0.243098         2.460654
 H         0.183655        -0.141230        -0.358064
 H         3.090841        -1.670894        -1.118943
