19
Iteration:  4865
 C         1.850031         2.141626        -0.490391
 C         1.896509         0.977478         0.453303
 C         2.368122         0.986140         1.899174
 C         2.341560        -0.615867         1.707109
 O         3.223491        -1.183700         2.582936
 C         0.885299        -1.158395         1.423769
 C         0.915912        -0.324835         0.190251
 C         2.482535        -0.384896         0.170244
 O         3.649171        -0.877047        -0.514833
 H         0.833298         2.411209        -0.732949
 H         2.346242         3.017104        -0.043750
 H         2.509068         1.943053        -1.357352
 H         3.459066         1.330282         1.883346
 H         1.975250         1.607288         2.748422
 H         4.182805        -1.176039         2.348246
 H         0.909584        -2.198396         1.247638
 H         0.199648        -0.864095         2.275321
 H         0.187654        -0.283761        -0.617303
 H         3.323995        -1.254511        -1.320662
