19
Iteration:  4732
 C         1.712428         2.164214        -0.405789
 C         1.901445         0.902282         0.325075
 C         2.254429         0.943518         1.779010
 C         2.458738        -0.506942         1.775424
 O         3.108606        -1.275301         2.751492
 C         0.931963        -0.958885         1.592619
 C         1.196612        -0.496564         0.147332
 C         2.717171        -0.353004         0.193967
 O         3.609605        -0.777824        -0.737021
 H         1.041058         2.880819         0.091281
 H         2.623692         2.627982        -0.780383
 H         1.161246         1.959575        -1.341956
 H         3.143264         1.475850         1.812954
 H         1.429042         1.266614         2.420363
 H         3.002906        -2.249025         2.621650
 H         0.825045        -1.977876         1.757206
 H         0.134241        -0.433903         2.155874
 H         0.515920        -0.560609        -0.782960
 H         3.344340        -1.452527        -1.317338
