19
Iteration:  2988charge 0 multiplicity 1
 C         1.951655         2.063437        -0.559538
 C         1.771663         1.019802         0.442504
 C         2.287338         1.019146         1.878531
 C         2.371268        -0.531469         1.726669
 O         3.316339        -1.310953         2.428814
 C         0.908741        -1.065211         1.541776
 C         1.043215        -0.442257         0.214081
 C         2.497157        -0.348706         0.193106
 O         3.463750        -0.839241        -0.537206
 H         2.859202         2.650007        -0.436381
 H         2.109207         1.748240        -1.633426
 H         1.255972         2.980146        -0.465702
 H         3.303450         1.415678         1.782861
 H         1.747341         1.542738         2.761421
 H         3.719502        -0.789923         3.142140
 H         0.678951        -2.059682         1.537399
 H         0.062948        -0.584796         2.151011
 H         0.519502        -0.770102        -0.639222
 H         4.054805        -1.294405         0.035421
