19
Iteration:  1935
 C         1.920185         2.199112        -0.462353
 C         2.002678         0.972997         0.313177
 C         2.530528         1.056272         1.800778
 C         2.455675        -0.521076         1.826069
 O         3.240502        -1.303839         2.686429
 C         0.990584        -0.952088         1.719215
 C         0.977501        -0.381814         0.298441
 C         2.429074        -0.480164         0.085362
 O         3.209778        -0.963658        -0.929246
 H         1.506930         2.019870        -1.493046
 H         1.280494         2.945044         0.106841
 H         3.022282         2.562573        -0.488176
 H         3.541306         1.346321         1.935601
 H         1.967187         1.542252         2.665572
 H         3.791207        -0.810625         3.275555
 H         0.797173        -2.078901         1.595877
 H         0.294383        -0.619876         2.544873
 H         0.327809        -0.449531        -0.526773
 H         3.354877        -1.884218        -0.957705
