19
Iteration:  2202
 C         1.984116         2.174113        -0.680127
 C         1.838979         0.982978         0.335191
 C         2.333675         1.002001         1.800026
 C         2.413761        -0.519792         1.841413
 O         3.313389        -1.421595         2.368072
 C         0.858995        -0.962553         1.790184
 C         0.987810        -0.405735         0.284124
 C         2.488602        -0.376791         0.306325
 O         3.417571        -0.838971        -0.600662
 H         2.867659         2.187068        -1.263289
 H         1.090770         2.387518        -1.277246
 H         2.177475         3.062106        -0.001489
 H         3.454100         1.137250         1.733361
 H         1.841012         1.548458         2.727237
 H         4.154788        -0.943618         2.482322
 H         0.824501        -2.073539         1.891184
 H         0.153582        -0.406520         2.488975
 H         0.466080        -0.750984        -0.555314
 H         3.168194        -1.696552        -0.878718
