19
Iteration:  1989
 C         1.803751         2.063054        -0.579426
 C         1.993899         0.966295         0.462713
 C         2.549762         1.086201         1.873368
 C         2.421479        -0.577772         1.812031
 O         3.224742        -1.406085         2.503141
 C         0.895220        -0.852566         1.684283
 C         0.987327        -0.309723         0.295878
 C         2.531041        -0.375816         0.221279
 O         3.373992        -0.940205        -0.758036
 H         0.778627         1.900391        -0.923810
 H         1.956623         3.048162        -0.215998
 H         2.408233         1.995466        -1.433384
 H         3.568468         1.415824         1.920739
 H         1.812637         1.621948         2.551175
 H         4.097372        -1.462994         2.122639
 H         0.674260        -1.956313         1.884555
 H         0.269406        -0.273034         2.410728
 H         0.347618        -0.037846        -0.494372
 H         3.088509        -1.696262        -1.229274
