19
Iteration:  3780charge 0 multiplicity 1
 C         1.774202         2.021596        -0.584985
 C         1.977911         0.956844         0.460692
 C         2.285150         1.028878         1.877728
 C         2.353549        -0.571389         1.845179
 O         3.165629        -1.215533         2.760831
 C         0.915972        -1.129272         1.431645
 C         1.163673        -0.344294         0.104994
 C         2.559806        -0.341001         0.192577
 O         3.568194        -0.781378        -0.653257
 H         2.704031         2.555623        -0.757342
 H         1.500872         1.608640        -1.521182
 H         0.948605         2.666464        -0.327694
 H         3.224710         1.447106         2.218761
 H         1.508940         1.625893         2.479474
 H         3.913754        -1.634292         2.326530
 H         1.107963        -2.178955         1.310889
 H         0.039523        -0.875768         2.110800
 H         0.462579        -0.118742        -0.693057
 H         3.260276        -1.578465        -1.037338
