19
Iteration:   314charge 0 multiplicity 1
 C         1.739858         2.085003        -0.580268
 C         1.841783         0.914039         0.270681
 C         2.302204         1.023679         1.768919
 C         2.422998        -0.542874         1.792356
 O         3.314102        -1.215763         2.792231
 C         0.905976        -0.979129         1.602493
 C         1.060437        -0.461436         0.196373
 C         2.506669        -0.421058         0.235501
 O         3.537904        -0.892883        -0.677963
 H         0.691193         2.489453        -0.558472
 H         2.350613         2.978984        -0.331717
 H         1.985045         1.838715        -1.715855
 H         3.375809         1.534480         1.809898
 H         1.675560         1.646818         2.459784
 H         4.149994        -1.460396         2.298447
 H         0.824815        -2.112607         1.459850
 H         0.228086        -0.612647         2.323636
 H         0.323036        -0.773054        -0.604209
 H         4.174189        -0.201230        -0.640000
