19
Iteration:  1166charge 0 multiplicity 1
 C         1.738101         2.126945        -0.650775
 C         1.913582         0.988202         0.337368
 C         2.529525         1.051548         1.749692
 C         2.532841        -0.556017         1.846847
 O         3.228561        -1.381547         2.746732
 C         1.060794        -0.959693         1.735151
 C         0.996539        -0.214950         0.364845
 C         2.482489        -0.424274         0.121265
 O         3.285296        -0.974467        -0.786718
 H         1.263381         1.749311        -1.591878
 H         1.266461         3.115272        -0.353589
 H         2.777027         2.504654        -0.990292
 H         3.607054         1.442195         1.634089
 H         2.172380         1.626922         2.531028
 H         3.970362        -0.890422         3.096046
 H         0.969501        -2.066591         1.448576
 H         0.290775        -0.703815         2.495363
 H         0.343764        -0.600093        -0.513932
 H         2.837632        -1.611762        -1.407258
