19
Iteration:  3971
 C         1.843547         2.153352        -0.558551
 C         1.982889         0.966472         0.400974
 C         2.089622         0.974945         1.938287
 C         2.328946        -0.603574         1.855232
 O         3.223434        -1.134517         2.748591
 C         0.958162        -1.129620         1.474323
 C         1.144968        -0.431931         0.116468
 C         2.579420        -0.421022         0.188135
 O         3.627631        -0.744728        -0.751919
 H         2.662141         2.867245        -0.425649
 H         1.940404         1.968393        -1.651987
 H         0.900264         2.668966        -0.417888
 H         3.035073         1.556519         2.173759
 H         1.309129         1.414507         2.547473
 H         3.242995        -2.121578         2.806806
 H         1.004930        -2.285182         1.329532
 H         0.130274        -0.928118         2.064039
 H         0.306477        -0.440752        -0.570190
 H         3.502447        -1.706818        -1.022824
