19
Iteration:  4513
 C         1.920090         2.190678        -0.385752
 C         1.870596         0.951908         0.406824
 C         2.207250         0.984169         1.797411
 C         2.366851        -0.533508         1.802529
 O         3.242767        -1.193934         2.680804
 C         0.922314        -1.163365         1.518948
 C         1.028935        -0.504955         0.105164
 C         2.524227        -0.381602         0.172308
 O         3.594825        -0.786142        -0.668660
 H         1.488968         3.104024         0.067020
 H         2.950676         2.488663        -0.603688
 H         1.540348         2.067189        -1.419425
 H         3.106755         1.472689         2.002911
 H         1.479866         1.370597         2.519053
 H         4.172909        -1.063296         2.450118
 H         0.937664        -2.206744         1.455771
 H         0.006881        -0.784534         2.049230
 H         0.321174        -0.692435        -0.756273
 H         3.282881        -1.575967        -1.207807
