19
Iteration:  3691charge 0 multiplicity 1
 C         1.948946         2.086996        -0.562091
 C         1.844330         0.913692         0.405933
 C         2.289970         0.911509         1.815007
 C         2.406234        -0.592234         1.735972
 O         3.328046        -1.139881         2.623319
 C         0.899405        -1.053894         1.543478
 C         0.945410        -0.436554         0.188413
 C         2.531756        -0.362947         0.193162
 O         3.541421        -0.763737        -0.632764
 H         2.711798         2.804040        -0.185194
 H         2.334702         1.864577        -1.548396
 H         0.952684         2.509759        -0.711974
 H         3.246882         1.455947         2.017031
 H         1.640364         1.516683         2.523934
 H         2.852278        -1.442011         3.398716
 H         0.662001        -2.101886         1.496660
 H         0.070686        -0.571185         2.194682
 H         0.184949        -0.515110        -0.632004
 H         3.818548        -1.639638        -0.491339
