19
Iteration:  4296
 C         1.920031         2.057086        -0.548673
 C         1.745064         0.893210         0.355454
 C         2.223383         0.951664         1.861588
 C         2.344320        -0.595728         1.774238
 O         3.296436        -1.168930         2.493653
 C         0.839116        -1.200180         1.478829
 C         1.006391        -0.434542         0.147143
 C         2.534402        -0.367205         0.244971
 O         3.730350        -0.549754        -0.451372
 H         2.864865         1.982772        -1.080167
 H         1.043892         2.246346        -1.299799
 H         1.872366         3.005010         0.153787
 H         3.275798         1.212805         1.763214
 H         1.833968         1.556703         2.719894
 H         2.908103        -1.924004         2.981408
 H         0.827675        -2.195844         1.144240
 H         0.043835        -0.953792         2.280622
 H         0.483029        -0.542375        -0.869867
 H         3.843046        -1.508402        -0.476938
