19
Iteration:  1974charge 0 multiplicity 1
 C         1.780742         2.078617        -0.520718
 C         2.027231         0.980346         0.423167
 C         2.548645         0.979087         1.884294
 C         2.486357        -0.540218         1.691963
 O         3.214753        -1.338296         2.657235
 C         0.971781        -0.878907         1.651835
 C         0.963581        -0.194483         0.259621
 C         2.384069        -0.493911         0.117476
 O         3.376952        -0.932830        -0.746844
 H         0.830886         2.131115        -1.074392
 H         1.718809         3.034138         0.014542
 H         2.533706         2.111328        -1.322274
 H         3.665072         1.331619         1.810446
 H         2.117115         1.460202         2.754059
 H         4.171238        -1.298289         2.363237
 H         0.781647        -1.953972         1.540341
 H         0.384921        -0.383223         2.393265
 H         0.108950        -0.373308        -0.428249
 H         3.040180        -1.873461        -0.953781
