19
Iteration:  2178charge 0 multiplicity 1
 C         1.900242         2.134287        -0.592045
 C         1.947801         0.981999         0.398964
 C         2.414427         1.109012         1.817743
 C         2.451686        -0.527582         1.796177
 O         3.232087        -1.420560         2.595350
 C         0.957099        -0.952754         1.729584
 C         0.950255        -0.367381         0.220538
 C         2.445792        -0.425501         0.140074
 O         3.423115        -0.874038        -0.726492
 H         2.819792         2.342269        -1.102797
 H         1.041411         2.041684        -1.247314
 H         1.770208         3.018738        -0.009984
 H         3.396291         1.518671         2.045491
 H         1.540760         1.445015         2.556764
 H         4.141368        -1.345286         2.160071
 H         1.000276        -2.024065         1.838598
 H         0.309622        -0.486354         2.551583
 H         0.059421        -0.352984        -0.438688
 H         3.398737        -1.855747        -0.637744
