19
Iteration:   719
 C         1.807222         1.981053        -0.729354
 C         1.812531         0.989645         0.415461
 C         2.376788         1.073547         1.870021
 C         2.437612        -0.465275         1.793900
 O         3.339354        -1.321019         2.530620
 C         1.002498        -1.047260         1.647368
 C         0.913191        -0.279385         0.330816
 C         2.414332        -0.363332         0.196273
 O         3.542702        -0.967784        -0.546920
 H         2.876826         2.202564        -0.912786
 H         1.322042         1.625449        -1.630778
 H         1.260533         2.933468        -0.464617
 H         3.360667         1.530425         1.887363
 H         1.654153         1.544186         2.663901
 H         4.300712        -1.332110         2.375227
 H         0.789464        -2.132089         1.401479
 H         0.371788        -0.604607         2.326753
 H         0.038226        -0.298216        -0.462625
 H         3.514634        -0.507346        -1.451158
