19
Iteration:   177charge 0 multiplicity 1
 C         1.789144         2.091845        -0.642157
 C         1.863811         0.957742         0.379926
 C         2.401169         1.006045         1.894242
 C         2.438161        -0.487572         1.807135
 O         3.232162        -1.263451         2.673534
 C         0.958781        -1.030796         1.591381
 C         1.028005        -0.517037         0.241110
 C         2.529074        -0.364931         0.144315
 O         3.456524        -0.885853        -0.749123
 H         1.279589         1.853465        -1.594547
 H         1.222124         2.998631        -0.302505
 H         2.719260         2.420755        -0.993724
 H         3.313659         1.525531         1.791538
 H         1.719306         1.463506         2.642551
 H         3.692709        -0.592524         3.173595
 H         1.063172        -2.049511         1.703206
 H         0.284045        -0.635442         2.217818
 H        -0.004264        -0.386654        -0.351119
 H         4.361702        -1.065618        -0.319645
