19
Iteration:  2387
 C         1.890244         2.205190        -0.655961
 C         1.909338         1.006711         0.334435
 C         2.279886         1.023172         1.840524
 C         2.417443        -0.599181         1.765090
 O         3.332362        -1.452970         2.432358
 C         0.879208        -0.951203         1.717465
 C         0.932805        -0.337843         0.272216
 C         2.498234        -0.334478         0.224623
 O         3.490091        -0.905417        -0.567545
 H         0.947507         2.580560        -1.008569
 H         2.406431         3.048651        -0.128508
 H         2.579324         1.859799        -1.522679
 H         3.072984         1.604948         2.186291
 H         1.443755         1.281521         2.512886
 H         4.178513        -0.991202         2.457256
 H         0.863366        -2.081071         1.594616
 H         0.201737        -0.690488         2.560832
 H         0.156605        -0.387335        -0.578813
 H         4.072733        -1.629288        -0.142455
