19
Iteration:   714charge 0 multiplicity 1
 C         1.801107         1.961434        -0.717589
 C         1.835043         1.016669         0.425968
 C         2.370976         1.064129         1.883957
 C         2.472363        -0.478466         1.767850
 O         3.302733        -1.310570         2.532197
 C         0.967161        -1.034316         1.656751
 C         0.893841        -0.286239         0.312640
 C         2.434476        -0.398438         0.180379
 O         3.549071        -0.950343        -0.554349
 H         2.823269         2.205455        -1.066233
 H         1.194831         1.758295        -1.659769
 H         1.311291         2.918337        -0.413919
 H         3.403936         1.486790         1.934644
 H         1.855268         1.540512         2.656633
 H         4.259377        -1.165829         2.325670
 H         1.021767        -2.094099         1.498606
 H         0.205482        -0.654556         2.490710
 H         0.141545        -0.407148        -0.351460
 H         3.623843        -0.541825        -1.416101
