19
Iteration:  4210charge 0 multiplicity 1
 C         1.771327         2.191947        -0.415267
 C         1.953142         0.966897         0.367137
 C         2.263287         0.883723         1.803269
 C         2.396128        -0.621756         1.786178
 O         3.029101        -1.116842         2.936179
 C         1.052281        -1.185753         1.361871
 C         1.153230        -0.421933         0.072563
 C         2.602455        -0.370593         0.201246
 O         3.547861        -0.725146        -0.726968
 H         2.651193         2.841006        -0.413741
 H         1.546327         1.852698        -1.510796
 H         0.844488         2.815016        -0.089836
 H         3.246383         1.241630         2.112918
 H         1.475945         1.204021         2.438577
 H         3.989382        -1.288632         2.834282
 H         1.324056        -2.268672         1.070253
 H         0.273884        -1.315549         2.072035
 H         0.682978        -0.494748        -0.919427
 H         3.201062        -1.397437        -1.300442
