19
Iteration:  2905charge 0 multiplicity 1
 C         1.814605         2.195070        -0.470043
 C         1.879351         0.883975         0.455460
 C         2.318497         1.049837         1.869991
 C         2.447960        -0.503612         1.802569
 O         3.169249        -1.194654         2.768197
 C         0.936596        -1.072650         1.523535
 C         1.159825        -0.405661         0.105149
 C         2.662198        -0.457435         0.180167
 O         3.425193        -0.944864        -0.862055
 H         2.795208         2.293048        -0.920562
 H         1.066521         2.149050        -1.215941
 H         1.565166         3.049535         0.075551
 H         3.236272         1.671256         1.929913
 H         1.555264         1.424955         2.550581
 H         2.511468        -1.722455         3.244971
 H         0.961485        -2.212555         1.391001
 H         0.172087        -0.731157         2.206015
 H         0.420344        -0.398268        -0.703602
 H         4.350505        -0.554455        -0.907023
