19
Iteration:  2802
 C         1.894456         2.138563        -0.639497
 C         1.852772         0.964302         0.345753
 C         2.203641         0.994113         1.921965
 C         2.409337        -0.543659         1.725311
 O         3.269672        -1.298273         2.519774
 C         1.015816        -1.022142         1.568170
 C         0.929928        -0.320978         0.271916
 C         2.596497        -0.342106         0.260151
 O         3.532906        -0.921269        -0.614962
 H         2.388076         3.042349        -0.262790
 H         2.532144         1.785065        -1.501368
 H         0.847016         2.488773        -0.968362
 H         3.197755         1.381808         1.826143
 H         1.678003         1.356933         2.803197
 H         2.954796        -2.197734         2.650198
 H         0.935146        -2.061994         1.461078
 H         0.259225        -0.833438         2.428526
 H         0.050479        -0.352136        -0.452904
 H         4.260323        -0.498279        -0.156093
