19
Iteration:  2796charge 0 multiplicity 1
 C         1.897989         2.077508        -0.619226
 C         1.781382         0.944859         0.359744
 C         2.266255         0.983302         1.925036
 C         2.431124        -0.530432         1.721663
 O         3.243715        -1.267167         2.491165
 C         1.025277        -1.009428         1.560387
 C         0.930957        -0.278447         0.244699
 C         2.557960        -0.394071         0.217922
 O         3.526304        -0.884748        -0.565628
 H         2.317029         2.964150        -0.095482
 H         2.518780         1.817202        -1.454385
 H         0.958405         2.451127        -0.916292
 H         3.328777         1.360648         1.852871
 H         1.737855         1.466092         2.784078
 H         2.778312        -2.138483         2.596508
 H         1.239570        -2.168337         1.493558
 H         0.315041        -0.818529         2.321626
 H         0.162882        -0.369585        -0.473206
 H         4.400196        -0.635058        -0.091749
