19
Iteration:  3073charge 0 multiplicity 1
 C         1.762394         2.144128        -0.597413
 C         1.951640         1.003114         0.321904
 C         2.385677         1.043554         1.837614
 C         2.415908        -0.562163         1.876540
 O         3.034107        -1.356129         2.960340
 C         1.052689        -1.120167         1.563801
 C         1.173389        -0.332494         0.141694
 C         2.653266        -0.328675         0.247795
 O         3.386736        -0.810835        -0.903818
 H         2.308399         3.005885        -0.183763
 H         2.067129         1.823240        -1.609032
 H         0.677972         2.380030        -0.590783
 H         3.416963         1.437908         1.845560
 H         1.612403         1.562352         2.486879
 H         3.939689        -1.489867         2.673349
 H         1.292138        -2.205873         1.434469
 H         0.270983        -0.787949         2.304287
 H         0.789605        -0.652317        -0.775934
 H         2.918214        -1.548837        -1.428743
