19
Iteration:  1386charge 0 multiplicity 1
 C         1.758339         2.196563        -0.418155
 C         2.030561         0.932342         0.361429
 C         2.425023         1.017514         1.818575
 C         2.455333        -0.549130         1.834039
 O         3.341746        -1.197555         2.660710
 C         0.961440        -0.870857         1.690583
 C         1.000741        -0.250701         0.291884
 C         2.505710        -0.582378         0.133431
 O         3.282504        -1.136733        -0.964694
 H         2.715862         2.572296        -0.826225
 H         1.102863         2.250250        -1.285109
 H         1.609722         3.032401         0.242255
 H         3.426149         1.553387         1.949608
 H         1.762749         1.496590         2.540591
 H         4.041561        -0.551570         2.785031
 H         0.880700        -1.965543         1.465308
 H         0.301434        -0.475283         2.478690
 H         0.199204        -0.162423        -0.493176
 H         3.096656        -2.118351        -0.789601
