19
Iteration:  4746
 C         1.681825         2.175032        -0.430822
 C         1.979994         0.868080         0.327388
 C         2.380618         1.007335         1.777093
 C         2.401444        -0.601319         1.760142
 O         3.098345        -1.188716         2.785925
 C         0.973902        -1.060220         1.553022
 C         1.054494        -0.448909         0.142145
 C         2.560449        -0.480063         0.123544
 O         3.678434        -0.676068        -0.711650
 H         1.296318         2.799130         0.382241
 H         2.662978         2.624450        -0.744568
 H         0.985006         2.032807        -1.290730
 H         3.406321         1.474712         1.894482
 H         1.747874         1.497997         2.475922
 H         2.663941        -2.056049         2.843459
 H         0.894020        -2.136154         1.518253
 H         0.310273        -0.637048         2.290382
 H         0.475478        -0.621207        -0.816683
 H         3.517840        -1.634861        -1.016869
