19
Iteration:   567charge 0 multiplicity 1
 C         1.854382         2.078756        -0.619535
 C         1.872089         0.908997         0.348810
 C         2.173635         1.110034         1.856253
 C         2.401993        -0.528044         1.834232
 O         3.366715        -1.202023         2.628425
 C         0.972234        -1.047184         1.635665
 C         1.010828        -0.441446         0.185559
 C         2.559340        -0.474001         0.195694
 O         3.458912        -0.951664        -0.712874
 H         0.939816         2.398466        -1.113452
 H         1.943140         2.937154         0.028331
 H         2.655905         2.216946        -1.328218
 H         3.084648         1.730128         2.023573
 H         1.463759         1.474023         2.516791
 H         3.925312        -0.705809         3.219591
 H         0.859540        -2.210625         1.492634
 H         0.168913        -0.843599         2.446138
 H         0.263256        -0.593168        -0.509188
 H         4.123270        -0.227629        -0.915352
