19
Iteration:  2604charge 0 multiplicity 1
 C         1.803308         2.027440        -0.612336
 C         1.795468         1.015100         0.439050
 C         2.296606         1.015244         1.892440
 C         2.325362        -0.535839         1.770720
 O         3.260438        -1.252826         2.510883
 C         0.855576        -1.104660         1.529338
 C         1.051479        -0.271347         0.216676
 C         2.545787        -0.353378         0.224903
 O         3.732370        -0.857151        -0.490091
 H         2.762156         2.166144        -1.012799
 H         1.078567         1.791884        -1.375232
 H         1.503241         2.972055        -0.183027
 H         3.372836         1.337570         2.012024
 H         1.756878         1.420908         2.786905
 H         3.771991        -1.845995         1.927135
 H         0.951394        -2.093663         1.196974
 H        -0.078387        -0.864682         2.141717
 H         0.265538        -0.092686        -0.493566
 H         3.426268        -1.519304        -1.097146
