19
Iteration:  2575charge 0 multiplicity 1
 C         1.868292         2.038114        -0.685170
 C         1.966843         1.021857         0.396241
 C         2.211244         1.053271         1.945910
 C         2.399470        -0.555762         1.740848
 O         3.286173        -1.405356         2.565413
 C         0.862833        -1.037782         1.616936
 C         1.038827        -0.311060         0.144485
 C         2.490271        -0.368764         0.245167
 O         3.588409        -0.757326        -0.550634
 H         2.723755         2.714798        -0.928816
 H         1.419132         1.691267        -1.626729
 H         1.066032         2.633655        -0.148547
 H         3.071067         1.567518         2.315883
 H         1.415675         1.326379         2.654131
 H         4.235032        -1.447089         2.226095
 H         0.803555        -2.150525         1.371490
 H         0.128039        -0.719712         2.278143
 H         0.382639        -0.316908        -0.707533
 H         3.485665        -1.754321        -0.763922
