19
Iteration:  1070
 C         1.895779         2.060797        -0.704896
 C         1.882100         0.963907         0.392141
 C         2.453602         1.090329         1.861046
 C         2.420763        -0.426714         1.784017
 O         3.341444        -1.346874         2.471488
 C         1.008121        -0.976036         1.706097
 C         0.954076        -0.217152         0.469983
 C         2.457643        -0.440380         0.204674
 O         3.291438        -1.044018        -0.716553
 H         2.547392         1.715263        -1.536155
 H         0.978277         2.389433        -1.229159
 H         2.301181         2.890837        -0.155702
 H         3.493938         1.605467         1.713918
 H         2.024871         1.741460         2.796681
 H         4.027433        -0.844668         2.878102
 H         1.148036        -2.097942         1.422351
 H         0.380261        -0.868205         2.643434
 H         0.105304        -0.201909        -0.327308
 H         2.768486        -1.722732        -1.089214
