19
Iteration:   558charge 0 multiplicity 1
 C         1.850242         2.095935        -0.556265
 C         1.801016         0.856947         0.318110
 C         2.220160         1.084350         1.788394
 C         2.490428        -0.448760         1.830119
 O         3.381325        -1.244458         2.616611
 C         0.866376        -1.110159         1.613234
 C         0.996210        -0.406789         0.234831
 C         2.532113        -0.465991         0.236992
 O         3.511349        -0.923462        -0.666507
 H         0.852365         2.245513        -1.135392
 H         2.155513         3.082510        -0.019320
 H         2.557639         1.949680        -1.384580
 H         3.190680         1.694761         1.819082
 H         1.435005         1.466964         2.382759
 H         3.955957        -0.637583         3.082027
 H         0.805620        -2.189777         1.695152
 H         0.055945        -0.567772         2.179642
 H         0.389803        -0.521596        -0.705964
 H         4.012876        -0.102080        -0.943460
