19
Iteration:   722charge 0 multiplicity 1
 C         1.809653         2.008592        -0.727000
 C         1.802397         0.968166         0.403060
 C         2.359089         1.082869         1.863067
 C         2.426400        -0.483387         1.802603
 O         3.352146        -1.325864         2.533096
 C         1.025787        -1.046530         1.632182
 C         0.923553        -0.281846         0.329430
 C         2.422758        -0.346970         0.206832
 O         3.522931        -0.967608        -0.542878
 H         2.870928         2.241664        -0.846952
 H         1.424436         1.479923        -1.606612
 H         1.298480         2.867817        -0.515449
 H         3.412813         1.590159         1.860182
 H         1.629197         1.487483         2.586080
 H         4.321639        -1.343549         2.320212
 H         0.720303        -2.097536         1.421169
 H         0.293633        -0.567298         2.434165
 H         0.100535        -0.233815        -0.432754
 H         3.462772        -0.530834        -1.420204
