19
Iteration:  3423
 C         1.756022         2.141307        -0.611757
 C         2.056578         0.979059         0.395918
 C         2.327446         1.041694         1.887818
 C         2.389874        -0.536673         1.850959
 O         3.149151        -1.208873         2.829308
 C         0.940760        -1.137571         1.490116
 C         1.126997        -0.404005         0.133719
 C         2.621250        -0.324712         0.215491
 O         3.356363        -1.009621        -0.773901
 H         2.631057         2.570642        -1.029830
 H         0.978116         1.844405        -1.347478
 H         1.340055         3.018722        -0.071425
 H         3.323454         1.461299         2.051149
 H         1.534278         1.525863         2.513505
 H         4.078791        -0.853916         2.787740
 H         1.239471        -2.260481         1.386145
 H         0.087626        -1.005215         2.146974
 H         0.682968        -0.383148        -0.850718
 H         4.151320        -0.524657        -1.058486
