19
Iteration:  2924charge 0 multiplicity 1
 C         1.806296         2.076338        -0.573792
 C         1.964749         0.983932         0.423179
 C         2.230539         0.926987         1.993866
 C         2.348876        -0.547016         1.847123
 O         3.304514        -1.224241         2.647057
 C         0.918044        -0.952968         1.484380
 C         1.125598        -0.354323         0.121610
 C         2.591946        -0.390979         0.185400
 O         3.468777        -0.950626        -0.775595
 H         2.740227         2.235940        -1.142549
 H         0.937026         1.936156        -1.284132
 H         1.446132         3.006648         0.008507
 H         3.215502         1.271031         2.233394
 H         1.594580         1.306138         2.775813
 H         2.936016        -1.502039         3.485486
 H         0.739280        -2.002017         1.454088
 H         0.090906        -0.478388         2.089974
 H         0.639711        -0.530482        -0.796740
 H         4.232260        -0.337893        -0.800403
