19
Iteration:  1664
 C         1.897205         1.988587        -0.720530
 C         1.976406         0.987940         0.481501
 C         2.537818         0.961737         1.832767
 C         2.505996        -0.617842         1.734974
 O         3.282474        -1.460733         2.492105
 C         0.933267        -0.810443         1.770961
 C         0.965022        -0.159266         0.519439
 C         2.391926        -0.389601         0.173980
 O         3.215884        -0.831707        -0.836314
 H         1.152320         2.695953        -0.476382
 H         2.854719         2.328742        -0.990695
 H         1.561339         1.344892        -1.536457
 H         3.545982         1.479492         1.884877
 H         1.936828         1.452807         2.533869
 H         4.169369        -1.038957         2.623311
 H         0.792126        -1.881491         1.808839
 H         0.574355        -0.307107         2.751481
 H         0.120199        -0.175455        -0.233654
 H         3.588023        -1.738802        -0.628153
