19
Iteration:  3958charge 0 multiplicity 1
 C         1.850712         2.067457        -0.556535
 C         1.869448         0.886100         0.388348
 C         2.236204         1.000091         1.881103
 C         2.356162        -0.532214         1.780470
 O         3.188600        -1.180227         2.751449
 C         0.929166        -1.141530         1.474996
 C         1.012064        -0.398182         0.172982
 C         2.638028        -0.363685         0.151925
 O         3.656766        -0.691968        -0.658378
 H         2.470993         2.803014        -0.173364
 H         2.059416         1.709627        -1.545934
 H         0.918023         2.496533        -0.508767
 H         3.202945         1.436553         2.204308
 H         1.336162         1.253245         2.541078
 H         3.436324        -1.975002         2.250194
 H         0.921889        -2.280965         1.328152
 H         0.172152        -0.840127         2.152030
 H         0.328628        -0.195552        -0.742062
 H         3.704297        -1.638260        -0.754010
