19
Iteration:  3188
 C         1.861096         2.035767        -0.739578
 C         1.959008         0.985979         0.404437
 C         2.186928         1.013562         1.998742
 C         2.378486        -0.579617         1.823980
 O         3.415517        -1.314825         2.551697
 C         0.844058        -1.006579         1.579113
 C         1.049083        -0.273169         0.154914
 C         2.500777        -0.378887         0.235053
 O         3.560952        -0.760930        -0.568665
 H         2.747842         2.071886        -1.419891
 H         0.954060         1.694456        -1.227290
 H         1.645530         3.094828        -0.576028
 H         3.132992         1.609994         2.092907
 H         1.360029         1.252578         2.724401
 H         3.146925        -2.227865         2.438476
 H         0.698311        -2.042330         1.301849
 H         0.194948        -0.573233         2.345566
 H         0.332957        -0.437015        -0.647113
 H         3.594942        -1.767839        -0.481307
