19
Iteration:  2691charge 0 multiplicity 1
 C         1.815690         2.203811        -0.551768
 C         1.983347         0.998720         0.334682
 C         2.305842         0.942373         1.843915
 C         2.396473        -0.647918         1.808497
 O         3.199004        -1.071721         2.884289
 C         1.000031        -1.241270         1.427237
 C         1.121815        -0.380919         0.153044
 C         2.613765        -0.324172         0.253199
 O         3.430813        -0.875322        -0.751292
 H         2.834886         2.569033        -0.937562
 H         1.263625         2.002254        -1.505880
 H         1.261342         3.008817         0.001448
 H         3.317618         1.229228         2.173427
 H         1.674514         1.402820         2.608594
 H         3.061599        -2.067050         2.866664
 H         0.806733        -2.283824         1.274043
 H         0.186360        -0.865234         2.227639
 H         0.665286        -0.621595        -0.793133
 H         2.787181        -0.805587        -1.505629
