19
Iteration:  2866charge 0 multiplicity 1
 C         1.789182         2.270156        -0.498984
 C         1.959736         0.995081         0.374461
 C         2.336390         0.951370         1.854776
 C         2.448093        -0.595598         1.803527
 O         3.121848        -1.113298         2.932545
 C         0.978824        -1.134233         1.493721
 C         1.077038        -0.399102         0.168387
 C         2.532086        -0.455092         0.135427
 O         3.428758        -0.969625        -0.907196
 H         2.862740         2.673287        -0.523305
 H         1.565740         2.052578        -1.598509
 H         1.278414         3.194967        -0.026779
 H         3.349925         1.371641         1.944559
 H         1.688604         1.220507         2.721819
 H         3.609630        -1.953817         2.749518
 H         1.100685        -2.183312         1.305282
 H         0.204047        -0.877550         2.297569
 H         0.518967        -0.154501        -0.780024
 H         4.315408        -0.594685        -0.716631
