19
Iteration:  3661charge 0 multiplicity 1
 C         1.864098         2.128051        -0.634886
 C         1.960419         0.984688         0.397671
 C         2.203095         0.996628         1.867151
 C         2.410592        -0.563768         1.869852
 O         3.221262        -1.140231         2.780008
 C         1.015756        -1.144083         1.493195
 C         1.082696        -0.291858         0.255144
 C         2.634053        -0.394001         0.254575
 O         3.445466        -0.870394        -0.810775
 H         2.786779         2.822835        -0.708335
 H         1.788948         1.643783        -1.663330
 H         0.917151         2.745830        -0.447821
 H         3.106458         1.524462         2.140036
 H         1.321855         1.382549         2.359091
 H         2.959405        -2.104013         2.770132
 H         1.196360        -2.149007         1.094278
 H         0.152820        -0.959929         2.147986
 H         0.390975        -0.392150        -0.657210
 H         3.441967        -1.902801        -0.812876
