19
Iteration:  3070
 C         1.742332         2.162642        -0.616560
 C         1.932980         1.004056         0.342114
 C         2.401253         1.064541         1.841722
 C         2.413706        -0.556298         1.886865
 O         3.035241        -1.359490         2.955383
 C         1.056207        -1.106289         1.546036
 C         1.171700        -0.356130         0.147958
 C         2.675838        -0.359919         0.260208
 O         3.367602        -0.814853        -0.888335
 H         2.380417         2.976917        -0.121763
 H         2.049888         1.917102        -1.629176
 H         0.687797         2.441781        -0.779181
 H         3.441397         1.435196         1.909654
 H         1.710873         1.526602         2.491042
 H         3.979830        -1.496003         2.670690
 H         1.253824        -2.256154         1.305975
 H         0.329211        -0.796578         2.223207
 H         0.831690        -0.723930        -0.843171
 H         2.925597        -1.446452        -1.433557
