19
Iteration:   261charge 0 multiplicity 1
 C         1.771296         2.067140        -0.727035
 C         1.850753         0.971745         0.312814
 C         2.220283         1.034060         1.886272
 C         2.461072        -0.491060         1.871836
 O         3.355418        -1.253829         2.673872
 C         1.025062        -1.136998         1.525630
 C         1.090766        -0.287570         0.213607
 C         2.528236        -0.397440         0.239653
 O         3.412518        -0.949653        -0.591759
 H         0.797585         2.253047        -1.236206
 H         2.038359         2.908766        -0.053377
 H         2.679311         1.952054        -1.382908
 H         3.248715         1.580676         1.953386
 H         1.453090         1.521606         2.513748
 H         3.874096        -0.685765         3.307810
 H         1.226266        -2.232307         1.243893
 H         0.208925        -1.023817         2.419116
 H         0.460554        -0.335381        -0.718116
 H         3.129447        -0.792934        -1.473160
