19
Iteration:    73
 C         1.813732         2.206576        -0.659213
 C         1.853138         0.966206         0.289273
 C         2.404800         0.943882         1.819927
 C         2.368541        -0.538565         1.843199
 O         3.312464        -1.130460         2.619919
 C         1.028333        -1.087661         1.642356
 C         1.004229        -0.436644         0.206601
 C         2.475870        -0.411625         0.185327
 O         3.428827        -0.929002        -0.647244
 H         2.446035         2.038076        -1.543739
 H         0.825369         2.494531        -1.067761
 H         2.085524         3.168106        -0.043624
 H         3.538981         1.265340         1.795837
 H         2.031158         1.500273         2.694500
 H         3.116115        -1.974885         3.038844
 H         0.977663        -2.234086         1.601333
 H         0.158803        -0.996262         2.411486
 H         0.136648        -0.464852        -0.333919
 H         4.209010        -0.533766        -0.297547
