19
Iteration:  1241
 C         1.916857         2.205931        -0.509812
 C         1.811873         0.934317         0.349514
 C         2.429235         1.018260         1.695064
 C         2.479486        -0.483117         1.763877
 O         3.318063        -1.222007         2.573187
 C         1.003538        -0.964829         1.724411
 C         0.869387        -0.350135         0.343440
 C         2.372274        -0.515790         0.125992
 O         3.400015        -1.015000        -0.715002
 H         1.145811         2.388196        -1.276774
 H         2.050696         3.020723         0.241177
 H         2.902942         2.221226        -1.075808
 H         3.437112         1.475295         1.789929
 H         1.888846         1.607309         2.555365
 H         4.263835        -0.898423         2.573241
 H         0.941225        -2.058245         1.768278
 H         0.472434        -0.555647         2.544989
 H         0.125704        -0.588849        -0.493694
 H         3.451550        -1.943505        -0.520271
