19
Iteration:  4188
 C         1.879909         2.218979        -0.343910
 C         1.862042         0.901437         0.338793
 C         2.082810         0.943161         1.895515
 C         2.400828        -0.587016         1.804413
 O         3.062494        -1.129726         2.885535
 C         1.039066        -1.191760         1.429578
 C         1.135077        -0.457162         0.127402
 C         2.677490        -0.365032         0.103326
 O         3.638733        -0.810106        -0.915217
 H         2.499507         2.884023         0.246292
 H         2.164730         2.309538        -1.463995
 H         0.822026         2.710415        -0.289350
 H         2.968488         1.553504         2.141557
 H         1.273212         1.106599         2.574230
 H         3.861401        -0.603064         3.062228
 H         0.956664        -2.329333         1.520383
 H         0.305030        -0.859498         2.154794
 H         0.496095        -0.583095        -0.719662
 H         3.281932        -1.685864        -1.263090
