19
Iteration:  1541charge 0 multiplicity 1
 C         1.826065         2.175075        -0.609222
 C         2.057473         1.010477         0.436528
 C         2.547797         0.946225         1.874727
 C         2.449045        -0.598018         1.846464
 O         3.357670        -1.324089         2.604461
 C         1.012520        -0.885966         1.740170
 C         1.041503        -0.235911         0.323665
 C         2.461795        -0.425445         0.132405
 O         3.089302        -1.048506        -0.904477
 H         0.789283         2.369714        -0.750097
 H         2.351801         3.069866        -0.325824
 H         2.295322         1.704139        -1.443653
 H         3.603778         1.344951         1.938678
 H         1.901849         1.552103         2.433547
 H         4.055385        -0.668634         2.900601
 H         0.827812        -2.000639         1.764335
 H         0.238337        -0.421029         2.545533
 H         0.215675         0.018566        -0.275791
 H         2.584794        -1.838413        -1.175585
