19
Iteration:   131charge 0 multiplicity 1
 C         1.779851         2.112454        -0.666333
 C         1.957858         1.014762         0.353049
 C         2.240403         1.041153         1.969309
 C         2.473054        -0.486571         1.842898
 O         3.312297        -1.220656         2.659740
 C         0.901736        -1.049980         1.599704
 C         1.056799        -0.361617         0.221540
 C         2.556848        -0.409734         0.226814
 O         3.411374        -1.045249        -0.727373
 H         2.192209         1.747674        -1.645400
 H         0.709203         2.342246        -0.834199
 H         2.407722         3.004755        -0.533616
 H         3.225723         1.392127         2.353228
 H         1.428948         1.293809         2.664506
 H         4.204839        -1.396683         2.308095
 H         0.938938        -2.111913         1.652586
 H         0.193584        -0.539941         2.143937
 H         0.402639        -0.577160        -0.704918
 H         3.887804        -0.216739        -1.124681
