19
Iteration:  3560
 C         1.787469         2.091337        -0.646057
 C         1.812598         1.004009         0.378742
 C         2.241073         1.087001         1.778881
 C         2.359604        -0.504349         1.840131
 O         3.314334        -1.416535         2.458304
 C         0.889012        -0.977018         1.602412
 C         1.097334        -0.369080         0.166850
 C         2.560609        -0.334305         0.299729
 O         3.550441        -0.998321        -0.449878
 H         2.733526         2.820713        -0.673383
 H         1.582784         1.480060        -1.559042
 H         0.962382         2.905484        -0.619151
 H         3.298491         1.407144         1.899141
 H         1.597470         1.507021         2.546934
 H         4.142922        -0.941664         2.398016
 H         0.815935        -2.043359         1.692004
 H         0.083682        -0.538190         2.359982
 H         0.486320        -0.525228        -0.667104
 H         4.256145        -0.403490        -0.800264
