19
Iteration:  3673charge 0 multiplicity 1
 C         1.888318         2.155561        -0.649998
 C         1.985154         0.946983         0.332639
 C         2.202512         0.985597         1.909907
 C         2.352386        -0.553601         1.853121
 O         3.336034        -1.167269         2.771793
 C         0.966771        -1.125174         1.540430
 C         1.012781        -0.276319         0.180872
 C         2.508092        -0.447154         0.141176
 O         3.486211        -0.830742        -0.726120
 H         2.737598         2.891923        -0.411713
 H         2.002505         1.761081        -1.719871
 H         0.919526         2.762868        -0.625439
 H         3.166967         1.433148         2.075681
 H         1.471659         1.295328         2.616139
 H         2.958929        -1.925866         3.234934
 H         1.086899        -2.223855         1.348766
 H         0.208970        -1.160824         2.305165
 H         0.348186        -0.335333        -0.741720
 H         3.727879        -1.732451        -0.754985
