19
Iteration:    24charge 0 multiplicity 1
 C         1.729140         2.052157        -0.702914
 C         2.054601         1.019024         0.382793
 C         2.204567         1.039685         1.900808
 C         2.438803        -0.550593         1.835778
 O         3.344814        -1.272737         2.589186
 C         0.929553        -0.991139         1.671660
 C         1.114414        -0.423974         0.266237
 C         2.622866        -0.350864         0.261627
 O         3.406373        -0.860638        -0.828798
 H         2.022757         1.671072        -1.706164
 H         0.654922         2.330298        -0.759266
 H         2.221447         2.956902        -0.566039
 H         3.065358         1.429384         2.318300
 H         1.339832         1.408512         2.510277
 H         3.017647        -1.450767         3.508187
 H         0.704057        -2.032073         1.764900
 H         0.135962        -0.512803         2.345500
 H         0.532906        -0.497913        -0.715736
 H         3.941943        -1.679636        -0.512840
