19
Iteration:  1826
 C         1.862200         2.086845        -0.581976
 C         2.072020         0.947679         0.335381
 C         2.529085         1.000131         1.772228
 C         2.428451        -0.625419         1.757390
 O         3.289502        -1.421082         2.508671
 C         0.890271        -0.802396         1.854615
 C         0.963518        -0.322087         0.322887
 C         2.369670        -0.432013         0.173871
 O         3.337448        -0.826956        -0.712276
 H         2.747184         2.194136        -1.267821
 H         0.934765         2.177874        -1.215848
 H         1.769185         3.063848        -0.003769
 H         3.479134         1.398013         2.036099
 H         1.776271         1.331504         2.520841
 H         4.120221        -1.485562         1.962352
 H         0.629146        -1.764320         2.232655
 H         0.407223        -0.042299         2.442270
 H         0.188386        -0.341465        -0.487390
 H         3.303887        -1.785098        -0.823182
