19
Iteration:  4701charge 0 multiplicity 1
 C         1.761763         2.156635        -0.582787
 C         1.974317         0.994332         0.444952
 C         2.189772         0.998407         1.998698
 C         2.404576        -0.537206         1.814863
 O         3.273020        -1.232646         2.718666
 C         0.887087        -1.102640         1.436615
 C         1.138838        -0.288743         0.129115
 C         2.622843        -0.352453         0.224847
 O         3.536065        -0.908398        -0.694600
 H         0.771964         2.566876        -0.420641
 H         2.595024         2.897000        -0.629782
 H         1.801697         1.492388        -1.473263
 H         3.098265         1.535198         2.282597
 H         1.354599         1.267336         2.606922
 H         3.738097        -1.899182         2.200075
 H         1.042840        -2.142013         1.286197
 H         0.045187        -0.949145         2.118955
 H         0.544415        -0.326380        -0.868979
 H         3.093025        -1.579608        -1.316769
