19
Iteration:  3056charge 0 multiplicity 1
 C         1.747677         2.207735        -0.663248
 C         1.873001         0.950974         0.399628
 C         2.385692         1.031793         1.900192
 C         2.492833        -0.534711         1.897958
 O         3.057040        -1.307084         2.849056
 C         1.016740        -1.073866         1.462213
 C         1.231249        -0.409850         0.202434
 C         2.625149        -0.422063         0.232858
 O         3.412038        -0.846543        -0.821234
 H         2.217105         3.151049        -0.277702
 H         2.390754         1.926620        -1.510325
 H         0.712445         2.625257        -0.767413
 H         3.411185         1.434560         1.827235
 H         1.827364         1.506393         2.701968
 H         4.009119        -1.277789         2.811929
 H         1.012821        -2.177793         1.353134
 H         0.085890        -0.859311         2.017073
 H         0.453882        -0.529270        -0.668574
 H         2.676849        -1.327606        -1.353280
