19
Iteration:    26
 C         1.729564         2.033995        -0.693462
 C         2.046165         1.005355         0.383708
 C         2.195317         1.035858         1.905785
 C         2.435130        -0.525625         1.850033
 O         3.353574        -1.281291         2.596396
 C         0.959388        -0.966621         1.635451
 C         1.107439        -0.409973         0.269842
 C         2.613859        -0.365153         0.264010
 O         3.407105        -0.870009        -0.828245
 H         2.016163         1.744851        -1.733110
 H         0.677313         2.368163        -0.842938
 H         2.146647         2.968669        -0.546383
 H         3.094640         1.386239         2.318879
 H         1.338004         1.445063         2.540533
 H         3.005363        -1.470874         3.470180
 H         0.731266        -2.022139         1.805575
 H         0.087570        -0.575351         2.338786
 H         0.475171        -0.438744        -0.711373
 H         3.998388        -1.659723        -0.568838
