19
Iteration:  4338charge 0 multiplicity 1
 C         1.923499         2.096744        -0.599555
 C         1.833764         0.967319         0.394622
 C         2.012292         0.975458         1.951278
 C         2.332865        -0.633936         1.796631
 O         3.237894        -1.286297         2.710611
 C         0.987681        -1.230102         1.484805
 C         1.168283        -0.336637         0.163264
 C         2.703033        -0.323327         0.283441
 O         3.551997        -0.671634        -0.845056
 H         2.822438         2.369267        -1.076266
 H         1.235829         2.248233        -1.390949
 H         1.755656         2.981376         0.019830
 H         2.896179         1.545861         2.239196
 H         1.040291         1.209688         2.599301
 H         3.012143        -1.092542         3.629863
 H         1.037077        -2.259753         1.252523
 H         0.144850        -0.848600         2.243889
 H         0.552917        -0.498951        -0.756830
 H         4.104247        -1.494554        -0.556645
