19
Iteration:  2820charge 0 multiplicity 1
 C         1.869117         2.137879        -0.656207
 C         1.934545         1.050185         0.393177
 C         2.213423         1.008744         1.914753
 C         2.385935        -0.611506         1.841666
 O         3.365649        -1.286504         2.626305
 C         0.860034        -1.050257         1.611004
 C         1.110169        -0.306915         0.198356
 C         2.539030        -0.399136         0.157832
 O         3.457434        -0.925292        -0.676767
 H         2.417556         3.096638        -0.274712
 H         2.304239         1.798212        -1.617511
 H         0.852530         2.591908        -0.699695
 H         3.071914         1.540827         2.436582
 H         1.220645         1.363681         2.300461
 H         3.093394        -2.209201         2.474648
 H         0.806741        -2.207954         1.576593
 H         0.055949        -0.687526         2.260876
 H         0.558842        -0.398374        -0.727425
 H         4.278808        -0.433906        -0.693316
