19
Iteration:    12charge 0 multiplicity 1
 C         1.772469         2.062610        -0.663946
 C         1.987484         0.978126         0.371380
 C         2.287108         1.030830         1.891620
 C         2.371024        -0.567054         1.804066
 O         3.348920        -1.241188         2.574466
 C         0.905491        -1.057541         1.695899
 C         1.150189        -0.406774         0.249430
 C         2.592285        -0.360355         0.204319
 O         3.430006        -0.816707        -0.755566
 H         1.795556         1.560322        -1.655712
 H         0.733770         2.435443        -0.564990
 H         2.482685         2.907881        -0.696635
 H         3.086477         1.735816         2.038055
 H         1.387681         1.294992         2.457772
 H         2.950316        -1.177115         3.483226
 H         0.671507        -2.102564         1.643845
 H         0.299372        -0.501131         2.425936
 H         0.511081        -0.676038        -0.612721
 H         3.610427        -1.688934        -0.507116
