19
Iteration:  2606
 C         1.805202         2.030685        -0.617446
 C         1.796770         1.022990         0.438948
 C         2.303871         1.040114         1.907208
 C         2.334775        -0.568974         1.770392
 O         3.269455        -1.250543         2.515263
 C         0.835697        -1.094676         1.522353
 C         1.046277        -0.281415         0.201713
 C         2.531052        -0.356766         0.224952
 O         3.734615        -0.858934        -0.487954
 H         2.744236         2.189083        -1.004279
 H         1.070778         1.841992        -1.359282
 H         1.529763         2.967772        -0.130629
 H         3.357918         1.371565         1.935426
 H         1.757270         1.455014         2.801289
 H         3.765063        -1.865879         1.987221
 H         0.984416        -2.131671         1.240396
 H         0.004208        -0.912258         2.129301
 H         0.287762        -0.165805        -0.556111
 H         3.367934        -1.478321        -1.092819
