19
Iteration:  4524
 C         1.923266         2.189218        -0.400711
 C         1.890991         0.880118         0.317018
 C         2.169455         1.002241         1.883348
 C         2.440822        -0.603685         1.749939
 O         3.201266        -1.232732         2.760468
 C         0.950665        -1.059409         1.548110
 C         1.073858        -0.502902         0.107802
 C         2.549757        -0.411333         0.110799
 O         3.540931        -0.737435        -0.733175
 H         1.144767         2.782876         0.135703
 H         2.907487         2.663833        -0.339287
 H         1.523696         2.096704        -1.432428
 H         3.023186         1.585582         2.036770
 H         1.315559         1.292471         2.505903
 H         4.092093        -0.921136         2.560705
 H         0.762914        -2.081791         1.599660
 H         0.260215        -0.546112         2.281408
 H         0.510708        -0.539463        -0.851021
 H         3.372458        -1.725273        -0.975944
