19
Iteration:  4581
 C         1.692370         2.073245        -0.655944
 C         1.978901         0.992710         0.415666
 C         2.532523         0.887402         1.917398
 C         2.399733        -0.577929         1.778918
 O         3.038170        -1.334220         2.787395
 C         1.056969        -1.098784         1.416654
 C         1.077201        -0.304502         0.226476
 C         2.536907        -0.328544         0.210076
 O         3.439321        -0.673165        -0.732808
 H         0.683818         1.987006        -0.925161
 H         2.020859         3.111053        -0.483312
 H         2.349961         1.614019        -1.427568
 H         3.532105         1.311853         1.992775
 H         1.972910         1.302048         2.779685
 H         3.603725        -0.801410         3.404624
 H         1.322108        -2.056881         1.020458
 H         0.191325        -1.174807         2.147609
 H         0.455685        -0.314852        -0.635541
 H         3.696015        -1.559221        -0.701194
