19
Iteration:  4665
 C         1.992902         2.170902        -0.555446
 C         1.837198         1.025955         0.439128
 C         2.216660         1.000598         1.946769
 C         2.339749        -0.564891         1.757255
 O         3.366591        -1.154301         2.603250
 C         0.921799        -1.227279         1.463960
 C         0.927311        -0.282197         0.189944
 C         2.450193        -0.420228         0.203386
 O         3.561398        -0.863771        -0.576859
 H         1.058975         2.534719        -1.057721
 H         2.480380         3.082665        -0.249384
 H         2.510397         1.894909        -1.480847
 H         3.177564         1.368689         2.100182
 H         1.460296         1.263653         2.721799
 H         3.964706        -1.567467         1.978783
 H         1.170001        -2.213289         1.187503
 H         0.104300        -1.282310         2.203937
 H         0.372488        -0.337619        -0.688934
 H         3.394615        -1.861662        -0.712996
