19
Iteration:  1977
 C         1.794419         2.074288        -0.541479
 C         2.036063         0.989513         0.458624
 C         2.554002         1.007140         1.900781
 C         2.480966        -0.560187         1.688062
 O         3.215055        -1.343166         2.631368
 C         0.962642        -0.874138         1.641191
 C         0.953442        -0.210402         0.258020
 C         2.394584        -0.497714         0.122322
 O         3.381298        -0.932037        -0.744184
 H         0.778131         2.037291        -0.959035
 H         1.731326         2.984165        -0.019177
 H         2.464148         2.081585        -1.304565
 H         3.588235         1.396621         1.822033
 H         2.086168         1.613104         2.733829
 H         4.138496        -1.336863         2.314599
 H         0.767698        -2.013880         1.661101
 H         0.382774        -0.311155         2.384712
 H         0.186911        -0.366525        -0.444697
 H         2.991471        -1.809275        -0.960156
