19
Iteration:  4302
 C         1.945497         2.068004        -0.568417
 C         1.776048         0.896759         0.404041
 C         2.237512         0.959436         1.863348
 C         2.306145        -0.599383         1.724155
 O         3.290475        -1.153002         2.540054
 C         0.930946        -1.199170         1.436446
 C         1.005389        -0.446839         0.106206
 C         2.503654        -0.376578         0.223461
 O         3.647424        -0.552493        -0.452347
 H         2.935411         2.048923        -1.075550
 H         1.114056         2.228729        -1.178958
 H         1.880393         2.782950         0.176301
 H         3.300428         1.302715         1.845563
 H         1.733018         1.393987         2.776927
 H         2.834925        -1.740751         3.153509
 H         0.974360        -2.346789         1.225639
 H         0.244774        -1.043413         2.260234
 H         0.330959        -0.394533        -0.697477
 H         3.957132        -1.537234        -0.409564
