19
Iteration:  2831charge 0 multiplicity 1
 C         1.839212         2.097255        -0.561237
 C         2.027719         0.939922         0.397327
 C         2.187670         0.980098         1.960192
 C         2.383356        -0.539290         1.815387
 O         3.323472        -1.202034         2.671322
 C         0.886131        -0.989980         1.503102
 C         1.148997        -0.312153         0.130064
 C         2.594907        -0.442963         0.287751
 O         3.363227        -0.942079        -0.766740
 H         2.637017         2.874847        -0.300256
 H         2.034143         1.840236        -1.620270
 H         0.811702         2.483503        -0.579646
 H         3.127226         1.498858         2.319601
 H         1.339035         1.288670         2.626289
 H         3.428186        -2.158489         2.444786
 H         0.855841        -2.134332         1.485856
 H         0.046638        -0.625162         2.096492
 H         0.636555        -0.325923        -0.826540
 H         4.053344        -0.217062        -0.754212
