19
Iteration:  4519
 C         1.933710         2.174245        -0.369627
 C         1.884097         0.907374         0.353991
 C         2.175820         1.014223         1.825746
 C         2.444766        -0.590285         1.778887
 O         3.212455        -1.213692         2.730631
 C         0.933983        -1.098873         1.553712
 C         1.047093        -0.517199         0.092336
 C         2.515265        -0.383989         0.121185
 O         3.567650        -0.762542        -0.701831
 H         1.250740         2.960252         0.092305
 H         2.940788         2.658542        -0.527360
 H         1.542407         2.101068        -1.396206
 H         3.140033         1.587025         2.113078
 H         1.397653         1.323183         2.550512
 H         4.118530        -0.941639         2.430895
 H         0.776998        -2.255736         1.524505
 H         0.119479        -0.659212         2.116165
 H         0.479228        -0.612054        -0.839269
 H         3.309074        -1.591451        -1.042817
