19
Iteration:   797charge 0 multiplicity 1
 C         1.745190         2.196553        -0.610799
 C         1.918674         0.953988         0.327403
 C         2.517293         0.996786         1.784952
 C         2.431817        -0.551907         1.744529
 O         3.270758        -1.221089         2.749972
 C         1.042330        -0.971582         1.646612
 C         0.961682        -0.320907         0.284672
 C         2.490772        -0.477390         0.182424
 O         3.382081        -1.033093        -0.720634
 H         1.599037         3.065442         0.114923
 H         2.707518         2.332423        -1.120588
 H         0.842054         2.322746        -1.289935
 H         3.469095         1.547094         1.681236
 H         1.795781         1.375522         2.555056
 H         4.036669        -0.760576         3.051061
 H         1.139701        -2.093176         1.534690
 H         0.401684        -0.815427         2.450928
 H         0.171598        -0.610361        -0.467159
 H         2.870170        -1.195424        -1.539407
