19
Iteration:  3597
 C         1.801239         2.147827        -0.475359
 C         1.949505         0.924024         0.325106
 C         2.364961         0.922728         1.675767
 C         2.363073        -0.537354         1.769999
 O         3.129104        -1.153449         2.755284
 C         0.957498        -1.034044         1.613992
 C         0.981731        -0.390230         0.184109
 C         2.509855        -0.460923         0.121072
 O         3.665191        -0.901742        -0.569838
 H         2.668023         2.662771        -0.791278
 H         1.241662         1.908998        -1.395052
 H         1.060186         2.715670         0.074926
 H         3.333593         1.343065         1.860831
 H         1.700745         1.506143         2.316579
 H         3.983713        -1.461524         2.407078
 H         0.861159        -2.172028         1.637616
 H         0.252882        -0.665415         2.309426
 H         0.202709        -0.306219        -0.682298
 H         3.626899        -0.500978        -1.515836
