19
Iteration:  1427
 C         1.819984         2.133608        -0.670198
 C         1.908624         1.021753         0.409426
 C         2.512126         1.035436         1.921552
 C         2.497220        -0.474947         1.809571
 O         3.250975        -1.341949         2.517779
 C         1.044051        -0.983484         1.739992
 C         1.024287        -0.245087         0.365606
 C         2.459014        -0.404271         0.160770
 O         3.252635        -1.047408        -0.756116
 H         2.576543         2.959813        -0.530749
 H         1.987487         1.732359        -1.691629
 H         0.787586         2.537402        -0.810812
 H         3.489945         1.417494         1.812361
 H         1.987670         1.578831         2.775991
 H         4.220299        -1.121515         2.392951
 H         1.053926        -2.118260         1.619779
 H         0.285176        -0.698685         2.642413
 H         0.253490        -0.225668        -0.344455
 H         2.882597        -1.815828        -1.137598
