19
Iteration:  3997
 C         1.870130         2.109590        -0.477158
 C         1.859322         0.944007         0.363744
 C         2.069249         0.926743         1.883671
 C         2.454635        -0.621153         1.755667
 O         3.213981        -1.103765         2.820033
 C         1.019438        -1.179077         1.364421
 C         1.240216        -0.370786         0.120023
 C         2.740241        -0.289809         0.257432
 O         3.462753        -0.832934        -0.763644
 H         2.884223         2.705427        -0.507753
 H         1.526884         2.137927        -1.548073
 H         1.094299         2.840162         0.131261
 H         2.843949         1.618860         2.194198
 H         1.155360         1.138360         2.425474
 H         2.681383        -1.396223         3.599157
 H         1.009332        -2.224095         1.233866
 H         0.095171        -0.943184         2.057622
 H         0.709442        -0.545391        -0.812642
 H         2.920510        -1.556479        -1.135486
