19
Iteration:   718
 C         1.807215         1.973413        -0.727849
 C         1.816576         0.996655         0.418612
 C         2.379302         1.071822         1.872830
 C         2.443723        -0.463797         1.789847
 O         3.334369        -1.319281         2.530352
 C         0.994311        -1.046792         1.650968
 C         0.908181        -0.279653         0.327885
 C         2.415467        -0.369775         0.192834
 O         3.546214        -0.965479        -0.549368
 H         2.874124         2.197302        -0.939309
 H         1.289808         1.661367        -1.647400
 H         1.250538         2.954398        -0.449009
 H         3.340716         1.509995         1.897616
 H         1.684928         1.551468         2.670848
 H         4.282121        -1.313172         2.379260
 H         0.827343        -2.125157         1.410129
 H         0.369079        -0.616826         2.324359
 H         0.052200        -0.320390        -0.442956
 H         3.534394        -0.516624        -1.435282
