19
Iteration:  2485
 C         1.856241         2.111630        -0.514195
 C         1.955788         0.924382         0.447844
 C         2.371563         1.014151         1.906551
 C         2.440030        -0.549242         1.817897
 O         3.039551        -1.244336         2.906926
 C         1.016007        -1.057072         1.508398
 C         1.177778        -0.456485         0.181105
 C         2.640057        -0.415858         0.150403
 O         3.352120        -0.749739        -0.993118
 H         1.831036         3.015079         0.039332
 H         2.672379         2.184000        -1.244548
 H         0.927941         1.990244        -1.145719
 H         3.292625         1.347485         2.275364
 H         1.650395         1.408628         2.607550
 H         3.960443        -0.891329         2.903145
 H         0.947864        -2.117778         1.406386
 H         0.255663        -0.596985         2.042101
 H         0.363097        -0.531171        -0.563916
 H         3.110350        -1.741591        -1.161951
