19
Iteration:   662
 C         1.712616         2.078229        -0.535817
 C         1.838040         0.911306         0.297243
 C         2.394201         0.970691         1.765725
 C         2.484410        -0.477425         1.868083
 O         3.223956        -1.296259         2.781056
 C         0.992105        -0.898196         1.689995
 C         1.036819        -0.419290         0.183814
 C         2.576404        -0.453857         0.161837
 O         3.486249        -0.966381        -0.805581
 H         2.144475         2.042106        -1.534318
 H         0.672728         2.258797        -0.875821
 H         2.059885         3.124572        -0.128483
 H         3.209593         1.638946         1.753764
 H         1.684719         1.398586         2.614614
 H         3.949337        -0.696828         2.998409
 H         0.734831        -1.959790         1.593589
 H         0.391106        -0.429605         2.364155
 H         0.364026        -0.531640        -0.590657
 H         3.783818        -0.183213        -1.216527
