19
Iteration:   193
 C         1.772800         2.090141        -0.604157
 C         1.922013         0.915025         0.338476
 C         2.289180         1.008320         1.782172
 C         2.409251        -0.583371         1.813949
 O         3.311161        -1.236196         2.692391
 C         0.939558        -0.998465         1.731590
 C         1.043973        -0.426076         0.181612
 C         2.516900        -0.440847         0.179407
 O         3.469919        -0.815843        -0.797833
 H         1.004846         1.959457        -1.382135
 H         1.465835         3.015670        -0.083195
 H         2.808353         2.329932        -1.090307
 H         3.393077         1.260859         1.964969
 H         1.601338         1.404479         2.551143
 H         3.620782        -0.617065         3.382570
 H         0.565599        -2.106045         1.684307
 H         0.202970        -0.294458         2.382024
 H         0.671721        -0.610682        -0.757405
 H         4.214222        -1.274691        -0.295506
