19
Iteration:  4085charge 0 multiplicity 1
 C         1.770305         2.037510        -0.664426
 C         1.857381         0.897407         0.425100
 C         2.210281         0.991236         1.944032
 C         2.343420        -0.559308         1.796410
 O         3.178425        -1.355127         2.564147
 C         0.889596        -1.002309         1.565830
 C         1.113889        -0.487747         0.076346
 C         2.606233        -0.379090         0.262325
 O         3.762547        -0.540774        -0.520300
 H         2.683143         2.763560        -0.528840
 H         1.845922         1.562510        -1.668964
 H         0.690180         2.498424        -0.544879
 H         3.177712         1.364002         2.148114
 H         1.487891         1.527341         2.500305
 H         3.437379        -2.033244         1.893871
 H         0.702322        -1.993738         1.795350
 H         0.101526        -0.366578         2.111697
 H         0.260781        -0.499450        -0.715220
 H         3.846074        -1.435107        -0.796977
