19
Iteration:  1050
 C         1.832407         2.156510        -0.602975
 C         1.966671         0.977153         0.383853
 C         2.494382         1.015434         1.754903
 C         2.494838        -0.523463         1.792846
 O         3.404051        -1.315616         2.561879
 C         0.948678        -0.899800         1.720130
 C         0.949791        -0.283477         0.276268
 C         2.452915        -0.425606         0.175586
 O         3.235107        -1.068179        -0.668311
 H         2.441310         1.803974        -1.489010
 H         0.748930         2.054218        -0.804399
 H         2.053641         3.104862        -0.150480
 H         3.436099         1.538425         1.830350
 H         1.890805         1.539157         2.637695
 H         4.058049        -0.811337         3.090671
 H         0.779570        -1.958871         1.882431
 H         0.400931        -0.302916         2.477148
 H         0.263173        -0.415055        -0.631282
 H         2.797548        -1.605276        -1.395171
