19
Iteration:  1019charge 0 multiplicity 1
 C         1.727604         2.175361        -0.451133
 C         1.978220         0.901451         0.359388
 C         2.566892         0.989579         1.765722
 C         2.440759        -0.468048         1.838417
 O         3.298015        -1.223636         2.685029
 C         0.938951        -0.811970         1.709500
 C         0.987873        -0.234973         0.316555
 C         2.515170        -0.593846         0.109126
 O         3.347611        -1.138080        -0.890658
 H         2.103117         2.163760        -1.545130
 H         0.631663         2.192499        -0.753689
 H         2.004709         3.122965         0.079274
 H         3.507342         1.455085         1.812740
 H         1.870358         1.395300         2.458542
 H         4.156652        -0.816298         2.848416
 H         0.817042        -1.848473         1.788180
 H         0.392444        -0.279139         2.487992
 H         0.200873        -0.314176        -0.466877
 H         2.895070        -1.769399        -1.438145
