19
Iteration:  1940
 C         1.892896         2.226326        -0.472265
 C         2.021083         0.967240         0.312151
 C         2.510749         1.093424         1.776377
 C         2.438317        -0.548865         1.792694
 O         3.237286        -1.331704         2.713560
 C         0.965826        -1.019266         1.741218
 C         0.979002        -0.327849         0.326722
 C         2.423370        -0.450191         0.104297
 O         3.256372        -0.973286        -0.933762
 H         1.429669         2.014391        -1.427101
 H         1.482021         3.066045         0.112909
 H         2.915399         2.663286        -0.624483
 H         3.663690         1.201232         1.728755
 H         2.044278         1.571161         2.610291
 H         3.881049        -0.742359         3.207662
 H         0.651976        -2.022565         1.608225
 H         0.356433        -0.599471         2.538369
 H         0.236120        -0.583531        -0.496999
 H         3.427960        -1.967103        -0.963992
