19
Iteration:   274
 C         1.820997         2.033659        -0.600003
 C         1.936252         0.962860         0.432491
 C         2.194868         1.132451         1.852481
 C         2.432377        -0.527493         1.821859
 O         3.339682        -1.247646         2.695828
 C         1.038477        -1.085243         1.521192
 C         0.969356        -0.353123         0.201285
 C         2.555088        -0.347998         0.192866
 O         3.465262        -1.007209        -0.653056
 H         0.780061         1.927811        -1.003035
 H         1.950484         3.097852        -0.389927
 H         2.369475         1.868459        -1.492832
 H         3.061679         1.757708         2.041086
 H         1.380242         1.430708         2.506131
 H         4.012293        -0.617953         2.952298
 H         1.060595        -2.159505         1.418995
 H         0.120650        -0.815889         2.285727
 H         0.298023        -0.576360        -0.710060
 H         3.496028        -0.609641        -1.594104
