19
Iteration:  1612
 C         1.834480         2.216205        -0.482375
 C         1.919458         0.963518         0.324523
 C         2.569502         1.002689         1.734905
 C         2.453601        -0.512939         1.820416
 O         3.297025        -1.393815         2.529662
 C         1.050410        -0.859949         1.760121
 C         0.932978        -0.218959         0.330965
 C         2.435530        -0.389439         0.137618
 O         3.235999        -1.121267        -0.727480
 H         0.756858         2.550608        -0.562761
 H         2.397118         3.035674         0.083518
 H         2.355693         1.980947        -1.460961
 H         3.649884         1.252868         1.521037
 H         2.207510         1.550496         2.670344
 H         4.226431        -1.137813         2.245661
 H         0.940345        -1.951603         1.720401
 H         0.596716        -0.556074         2.733236
 H         0.065445        -0.075063        -0.433090
 H         2.688156        -1.815920        -1.115041
