19
Iteration:   933
 C         1.947172         1.959795        -0.705298
 C         1.920094         0.922856         0.393433
 C         2.391719         0.999334         1.891620
 C         2.441081        -0.531829         1.788187
 O         3.382297        -1.274092         2.491586
 C         0.913029        -0.865868         1.810039
 C         0.974673        -0.265262         0.358764
 C         2.392025        -0.548173         0.236311
 O         3.332136        -0.821870        -0.800771
 H         1.348053         1.545659        -1.550879
 H         1.486431         2.907032        -0.360823
 H         2.987877         2.154999        -0.996683
 H         3.500347         1.336672         2.135011
 H         1.768382         1.529293         2.582735
 H         3.962591        -0.521547         2.827361
 H         0.759990        -1.923050         1.720759
 H         0.554926        -0.407499         2.769686
 H         0.107750        -0.455910        -0.367222
 H         3.104121        -1.665612        -1.340110
