19
Iteration:  2494charge 0 multiplicity 1
 C         1.823710         2.131223        -0.551978
 C         1.960335         0.968415         0.424015
 C         2.404040         0.919063         1.868230
 C         2.422215        -0.610837         1.891189
 O         3.075067        -1.198635         2.916939
 C         0.926367        -1.130273         1.554842
 C         1.134437        -0.378887         0.166684
 C         2.662159        -0.392126         0.182760
 O         3.386462        -0.757035        -1.018435
 H         1.939560         2.980517         0.086847
 H         2.705296         2.152816        -1.170324
 H         0.956028         2.322926        -1.120640
 H         3.396274         1.435161         1.927528
 H         1.657993         1.305945         2.586375
 H         3.965275        -0.801412         3.047849
 H         0.961398        -2.163103         1.507384
 H         0.067138        -0.827411         2.111352
 H         0.524274        -0.435246        -0.790242
 H         3.209661        -1.739539        -1.235137
