19
Iteration:  4340charge 0 multiplicity 1
 C         1.911393         2.089629        -0.587609
 C         1.841119         0.967216         0.384784
 C         2.000087         0.967685         1.951748
 C         2.343308        -0.639320         1.808994
 O         3.224711        -1.287533         2.704715
 C         0.993702        -1.225128         1.489590
 C         1.197145        -0.329243         0.154304
 C         2.727633        -0.326689         0.305868
 O         3.534098        -0.676414        -0.854190
 H         2.826886         2.363677        -1.061951
 H         1.195162         2.269391        -1.471662
 H         1.702894         3.041699         0.028129
 H         2.897098         1.519267         2.288321
 H         1.055686         1.226617         2.552900
 H         3.030632        -1.043229         3.633938
 H         1.027397        -2.255480         1.313342
 H         0.135670        -0.789405         2.170491
 H         0.530775        -0.481693        -0.803334
 H         4.061631        -1.459857        -0.603208
