19
Iteration:    82
 C         1.822663         2.209735        -0.623669
 C         1.888256         0.929724         0.318460
 C         2.409272         1.031493         1.806980
 C         2.394298        -0.576612         1.863620
 O         3.354620        -1.119056         2.644281
 C         0.937696        -1.073282         1.660734
 C         0.963638        -0.436691         0.205880
 C         2.432572        -0.484000         0.180529
 O         3.455546        -0.942782        -0.648244
 H         2.486747         2.275805        -1.511131
 H         0.803612         2.402234        -1.017232
 H         2.236238         3.106590        -0.091765
 H         3.410262         1.501875         1.701647
 H         1.752059         1.424585         2.628809
 H         3.288253        -2.095790         2.643026
 H         1.094975        -2.134819         1.269281
 H         0.124192        -0.768575         2.493031
 H         0.271195        -0.585991        -0.669509
 H         4.159088        -0.327589        -0.575209
