19
Iteration:  1778
 C         1.811014         2.243420        -0.530826
 C         1.941668         1.015851         0.397141
 C         2.619969         0.958478         1.802036
 C         2.563236        -0.506317         1.734527
 O         3.261835        -1.402422         2.609539
 C         0.961243        -0.936407         1.665236
 C         0.982372        -0.249903         0.310247
 C         2.474189        -0.355458         0.186306
 O         3.182734        -1.049517        -0.750967
 H         2.692474         2.926140        -0.725509
 H         1.631994         1.789756        -1.551941
 H         0.877519         2.813064        -0.522370
 H         3.616121         1.333809         1.654573
 H         2.104227         1.496392         2.572089
 H         4.100730        -1.072534         2.974214
 H         0.965402        -2.080312         1.498988
 H         0.243764        -0.732450         2.502802
 H         0.232609        -0.226496        -0.452891
 H         2.943842        -2.040641        -0.709787
