19
Iteration:  4453charge 0 multiplicity 1
 C         1.728952         2.048494        -0.706224
 C         1.915745         1.043355         0.436999
 C         2.055279         1.012245         2.055189
 C         2.375908        -0.549761         1.807438
 O         3.249546        -1.381538         2.445575
 C         0.917408        -1.056088         1.536886
 C         1.136239        -0.280497         0.144725
 C         2.626587        -0.322696         0.279652
 O         3.723116        -0.868520        -0.491116
 H         1.791925         3.010885        -0.052773
 H         2.671923         1.924158        -1.401746
 H         0.697004         2.030664        -1.150568
 H         2.997585         1.605023         2.357936
 H         1.135383         1.217845         2.629737
 H         4.097865        -1.377143         1.987648
 H         0.691043        -2.220758         1.364061
 H         0.182818        -0.658892         2.264748
 H         0.509075        -0.357536        -0.692195
 H         3.372187        -0.899741        -1.469556
