19
Iteration:  1776charge 0 multiplicity 1
 C         1.829387         2.253953        -0.541412
 C         1.941893         1.018396         0.381068
 C         2.605272         0.949451         1.815186
 C         2.564992        -0.516839         1.748935
 O         3.252343        -1.382800         2.600600
 C         0.978400        -0.940485         1.666435
 C         1.003041        -0.244189         0.305196
 C         2.482394        -0.378550         0.195068
 O         3.155587        -1.043936        -0.760049
 H         2.600700         2.975861        -0.725137
 H         1.687264         1.856701        -1.528135
 H         0.858873         2.727807        -0.526646
 H         3.688550         1.343150         1.698862
 H         2.085481         1.466456         2.593396
 H         4.064704        -1.097107         2.976805
 H         1.018473        -2.054225         1.508756
 H         0.211790        -0.767499         2.514257
 H         0.225904        -0.326316        -0.384333
 H         2.932622        -1.985391        -0.670836
