19
Iteration:  1249
 C         1.958741         2.168531        -0.582966
 C         1.847470         0.918804         0.343391
 C         2.504409         0.991719         1.743943
 C         2.455903        -0.455475         1.783030
 O         3.250101        -1.221592         2.511474
 C         1.074107        -0.942785         1.780671
 C         0.852102        -0.393050         0.304858
 C         2.361063        -0.478583         0.192903
 O         3.374125        -0.922181        -0.688081
 H         1.078929         2.127540        -1.201922
 H         1.783228         2.947468         0.128000
 H         2.925875         2.008105        -1.016820
 H         3.524673         1.212392         1.738054
 H         1.790832         1.446820         2.525355
 H         4.206019        -0.981000         2.442445
 H         1.290464        -1.996987         1.683520
 H         0.180907        -0.723703         2.537673
 H         0.025390        -0.588668        -0.480530
 H         3.324185        -1.841095        -0.571066
