19
Iteration:   101charge 0 multiplicity 1
 C         1.831776         2.036448        -0.485185
 C         1.879219         0.895807         0.324380
 C         2.240220         1.020119         1.785514
 C         2.441604        -0.508387         1.803366
 O         3.359728        -1.135642         2.649564
 C         0.901075        -1.004143         1.597227
 C         1.044201        -0.340629         0.238498
 C         2.570741        -0.403020         0.218359
 O         3.442090        -1.000379        -0.686852
 H         2.444432         1.928891        -1.406004
 H         0.855977         2.285152        -0.928321
 H         2.187223         2.887525        -0.017055
 H         3.216961         1.337613         1.920352
 H         1.514909         1.509505         2.493541
 H         3.778742        -1.926424         2.218156
 H         0.744056        -2.045711         1.715687
 H         0.220325        -0.445141         2.210153
 H         0.155228        -0.395038        -0.545243
 H         3.921033        -0.302438        -1.090999
