19
Iteration:  3059
 C         1.720928         2.207168        -0.667969
 C         1.877665         0.951603         0.403055
 C         2.397477         1.060133         1.878426
 C         2.477048        -0.535361         1.912669
 O         3.047475        -1.322866         2.875341
 C         1.043597        -1.056058         1.447931
 C         1.214792        -0.424383         0.209878
 C         2.664955        -0.441366         0.227724
 O         3.378776        -0.830268        -0.822530
 H         2.320885         3.120401        -0.265356
 H         2.332542         2.036672        -1.550249
 H         0.751310         2.671699        -0.869604
 H         3.439304         1.443813         1.949043
 H         1.892656         1.510195         2.683505
 H         4.025578        -1.374116         2.780867
 H         0.922824        -2.237542         1.254557
 H         0.183464        -0.941146         2.017956
 H         0.606219        -0.622141        -0.715195
 H         2.715019        -1.283250        -1.305975
