19
Iteration:  3647
 C         1.816129         2.007181        -0.578138
 C         1.972292         0.953744         0.401590
 C         2.214340         1.041242         1.919353
 C         2.403698        -0.504065         1.779272
 O         3.126637        -1.156085         2.829693
 C         1.038943        -1.100227         1.487744
 C         1.200630        -0.352429         0.164809
 C         2.705238        -0.261384         0.186587
 O         3.400627        -0.895976        -0.817814
 H         2.836609         2.534226        -0.644295
 H         1.494278         1.693699        -1.571735
 H         1.049749         2.738477        -0.232521
 H         3.153351         1.544549         2.291587
 H         1.470336         1.354533         2.732702
 H         3.327994        -2.066897         2.611159
 H         0.932660        -2.160421         1.441885
 H         0.240837        -0.932427         2.314885
 H         0.669780        -0.538189        -0.754807
 H         2.949308        -1.713356        -0.957866
