19
Iteration:  4625charge 0 multiplicity 1
 C         1.936117         2.115515        -0.509857
 C         1.892036         0.910414         0.394976
 C         2.174064         0.982842         1.846744
 C         2.419179        -0.525464         1.831818
 O         3.211137        -1.323555         2.554637
 C         0.912053        -0.929384         1.672134
 C         1.057517        -0.466242         0.150188
 C         2.532740        -0.491663         0.217166
 O         3.580589        -0.703773        -0.689851
 H         0.932429         2.187539        -0.854837
 H         2.134349         2.937090         0.191886
 H         2.691001         1.945336        -1.309576
 H         2.906727         1.731177         2.136052
 H         1.329986         1.225755         2.482015
 H         4.135031        -1.269678         2.186166
 H         0.762519        -1.989779         1.840649
 H         0.111732        -0.338178         2.189071
 H         0.600875        -0.764710        -0.844391
 H         3.417228        -1.362219        -1.334322
