19
Iteration:  2392charge 0 multiplicity 1
 C         1.929899         2.153733        -0.611203
 C         1.858674         1.010926         0.343475
 C         2.280654         1.046032         1.826405
 C         2.364395        -0.609357         1.801654
 O         3.354366        -1.435585         2.426624
 C         0.876208        -0.965330         1.698615
 C         0.930731        -0.309999         0.244692
 C         2.445214        -0.336826         0.209100
 O         3.534171        -0.910938        -0.576992
 H         0.892201         2.487542        -0.893168
 H         2.402051         3.071555        -0.256489
 H         2.434569         1.796017        -1.474074
 H         3.324160         1.509712         2.204997
 H         1.505696         1.431119         2.572980
 H         4.231713        -1.003991         2.407734
 H         0.929082        -2.086702         1.685679
 H         0.219362        -0.652045         2.546113
 H         0.317096        -0.261524        -0.599388
 H         4.064437        -1.607587        -0.193509
