19
Iteration:  1616
 C         1.818881         2.176851        -0.478381
 C         1.931283         0.971148         0.347675
 C         2.568091         1.006303         1.718317
 C         2.467284        -0.517736         1.821790
 O         3.305113        -1.395609         2.501001
 C         1.038047        -0.845220         1.762262
 C         0.949244        -0.209730         0.327419
 C         2.431422        -0.386752         0.164509
 O         3.227708        -1.096342        -0.727782
 H         0.765499         2.422799        -0.587089
 H         2.479294         2.941712        -0.029628
 H         2.335863         1.916493        -1.379989
 H         3.614358         1.209933         1.679653
 H         2.252059         1.545963         2.681634
 H         4.184264        -1.113980         2.272579
 H         0.807463        -1.915301         1.612351
 H         0.461510        -0.438766         2.557496
 H         0.134512        -0.142973        -0.320064
 H         2.753739        -1.884305        -1.070745
