19
Iteration:  1031charge 0 multiplicity 1
 C         1.700784         2.184640        -0.582265
 C         1.981809         0.947844         0.334144
 C         2.509316         0.964328         1.815193
 C         2.467198        -0.617890         1.778644
 O         3.326681        -1.225692         2.594110
 C         0.916135        -0.773591         1.793328
 C         1.039704        -0.318402         0.320254
 C         2.547590        -0.486593         0.168024
 O         3.331108        -1.130474        -0.815415
 H         2.434159         2.184639        -1.430871
 H         0.609330         2.409172        -0.702795
 H         2.099941         2.974197         0.120136
 H         3.548401         1.207641         1.943493
 H         1.980855         1.458682         2.569182
 H         3.963840        -0.495240         2.871172
 H         0.545141        -1.758636         1.771618
 H         0.250078        -0.175915         2.416697
 H         0.203932        -0.328855        -0.335403
 H         2.666319        -1.579864        -1.461745
