19
Iteration:  3579charge 0 multiplicity 1
 C         1.748580         2.130440        -0.578262
 C         1.844058         0.871817         0.317482
 C         2.392151         1.050765         1.902347
 C         2.422587        -0.517850         1.706994
 O         3.184942        -1.234941         2.595557
 C         0.930695        -0.953890         1.534133
 C         0.988908        -0.437520         0.166691
 C         2.488479        -0.447092         0.188554
 O         3.627128        -0.968055        -0.451207
 H         2.787954         2.505097        -0.490864
 H         1.481703         2.091874        -1.646548
 H         1.136823         2.931930        -0.161483
 H         3.409139         1.520624         1.747189
 H         1.918195         1.603971         2.800270
 H         4.096921        -1.167767         2.269807
 H         0.850916        -2.045277         1.590778
 H         0.111397        -0.675662         2.234823
 H         0.281478        -0.597180        -0.604803
 H         3.914331        -0.276192        -1.141956
