19
Iteration:  1255charge 0 multiplicity 1
 C         1.957064         2.088202        -0.598326
 C         1.883165         0.915711         0.327244
 C         2.511414         1.011200         1.794517
 C         2.420773        -0.453484         1.756078
 O         3.245293        -1.255388         2.507763
 C         1.040609        -0.952256         1.794305
 C         0.877103        -0.414359         0.312429
 C         2.387130        -0.437916         0.212519
 O         3.339142        -0.861538        -0.666826
 H         1.122421         2.031357        -1.353263
 H         1.739049         3.069286        -0.068384
 H         2.950418         2.114236        -1.120130
 H         3.632086         1.314318         1.620032
 H         1.964073         1.489065         2.567537
 H         4.127834        -0.973602         2.333187
 H         1.261161        -2.048315         1.666121
 H         0.274891        -0.823155         2.510584
 H         0.079905        -0.503086        -0.341242
 H         3.330714        -1.864965        -0.700686
