19
Iteration:  2363
 C         1.891234         2.163276        -0.568306
 C         1.916371         1.013060         0.386734
 C         2.255571         1.059984         1.906068
 C         2.424633        -0.508577         1.802181
 O         3.242538        -1.400087         2.480077
 C         1.024663        -0.983288         1.645482
 C         0.993880        -0.310904         0.225130
 C         2.530461        -0.389957         0.172472
 O         3.426250        -0.972252        -0.683607
 H         0.872454         2.149612        -1.023596
 H         2.023117         3.137777        -0.050307
 H         2.584170         2.029562        -1.427393
 H         3.176813         1.499775         2.129953
 H         1.566540         1.451052         2.598099
 H         3.985217        -0.933670         2.964807
 H         1.058892        -2.043440         1.628068
 H         0.317321        -0.673802         2.414067
 H         0.339470        -0.354834        -0.663303
 H         3.701533        -1.816560        -0.405175
