19
Iteration:  2711charge 0 multiplicity 1
 C         1.818317         2.156033        -0.545566
 C         1.898358         0.956110         0.369408
 C         2.294255         0.993144         1.931119
 C         2.392584        -0.530414         1.864680
 O         3.144252        -1.182650         2.790888
 C         0.993966        -1.086091         1.525463
 C         1.150180        -0.383450         0.168826
 C         2.634288        -0.389607         0.186762
 O         3.480191        -0.864383        -0.804584
 H         2.816774         2.772068        -0.648093
 H         1.756292         1.739404        -1.605635
 H         0.938868         2.829100        -0.376731
 H         3.277586         1.513497         2.002162
 H         1.626432         1.464185         2.643913
 H         3.276170        -2.126560         2.678403
 H         1.231248        -2.138526         1.372120
 H         0.078400        -1.128016         2.170129
 H         0.536727        -0.532170        -0.692412
 H         3.061482        -1.204312        -1.568919
