19
Iteration:  3545
 C        -0.052591         0.281215        -0.249214
 C         1.401413        -0.041852         0.074269
 C         2.171436         0.616351         1.286363
 C         3.313756         0.511275         0.340946
 C         3.220754        -0.864017        -0.357456
 O         4.411311        -1.649779        -0.538299
 C         1.921901        -1.430652        -0.077367
 C         2.531452         0.371050        -0.940829
 O         2.562065         1.096748        -2.101656
 H        -0.794823        -0.095590         0.477590
 H        -0.378932         1.355122        -0.170276
 H        -0.485483        -0.171249        -1.318603
 H         1.903315         1.691990         1.514374
 H         2.144768         0.270567         2.369802
 H         4.371108         0.889597         0.452402
 H         4.191304        -2.432638        -1.215277
 H         1.364673        -1.775634        -0.972015
 H         1.732727        -2.128399         0.771590
 H         3.018266         1.951489        -1.890895
