19
Iteration:  4794charge 0 multiplicity 1
 C        -0.062625         0.368943        -0.380639
 C         1.349396        -0.060164         0.054520
 C         2.051382         0.663045         1.292472
 C         3.320732         0.530178         0.462594
 C         3.234265        -0.930908        -0.357153
 O         4.347244        -1.530409        -0.788698
 C         1.909616        -1.566187         0.132526
 C         2.562349         0.320423        -0.844173
 O         2.777209         1.005924        -2.037191
 H        -0.811484        -0.113458         0.273875
 H        -0.217649         1.481300        -0.176435
 H        -0.101964         0.142974        -1.468304
 H         1.710223         1.779192         1.480159
 H         1.743033         0.165145         2.264018
 H         4.306736         0.962669         0.402730
 H         4.125932        -1.688690        -1.680084
 H         1.431100        -2.116124        -0.674264
 H         1.833299        -1.956835         1.102432
 H         2.353668         1.852544        -1.931462
