19
Iteration:  4484charge 0 multiplicity 1
 C        -0.079959         0.188566        -0.382258
 C         1.344796         0.004705         0.085169
 C         2.111882         0.647598         1.244670
 C         3.347404         0.470201         0.479458
 C         3.147939        -0.872069        -0.355264
 O         4.329791        -1.437902        -0.794453
 C         1.914854        -1.482446         0.175857
 C         2.632978         0.390502        -0.851208
 O         2.716373         1.084137        -2.046853
 H        -0.894654        -0.195632         0.387815
 H        -0.305027         1.267783        -0.481392
 H        -0.334026        -0.266718        -1.373021
 H         1.674003         1.680465         1.304602
 H         1.940669         0.348883         2.240241
 H         4.415079         0.613865         0.730594
 H         3.997461        -2.130540        -1.503555
 H         1.451448        -2.320805        -0.411171
 H         1.948199        -1.854851         1.222284
 H         3.069710         0.397451        -2.711278
