19
Iteration:  4939charge 0 multiplicity 1
 C        -0.144154         0.203426        -0.251389
 C         1.337839        -0.027204         0.102303
 C         2.115387         0.750338         1.243237
 C         3.394474         0.413408         0.446096
 C         3.181819        -0.817779        -0.353765
 O         4.366121        -1.653089        -0.592223
 C         1.893902        -1.471258        -0.069734
 C         2.604226         0.482432        -0.868655
 O         2.701143         1.047121        -2.119215
 H        -0.706280        -0.456204         0.267827
 H        -0.513109         1.241686        -0.111791
 H        -0.184895         0.032000        -1.346778
 H         1.868908         1.816645         1.204578
 H         2.039353         0.214552         2.188168
 H         4.461070         0.734359         0.572795
 H         4.304123        -2.230721        -1.381972
 H         1.446987        -1.931895        -0.928540
 H         1.770610        -2.125549         0.764546
 H         2.574919         2.028302        -2.117634
