19
Iteration:    11
 C        -0.049111         0.214117        -0.231178
 C         1.376586        -0.011302         0.122744
 C         2.064508         0.761010         1.254122
 C         3.372567         0.544969         0.323532
 C         3.251042        -0.881566        -0.335724
 O         4.396800        -1.570560        -0.768310
 C         1.918995        -1.470911         0.195096
 C         2.544590         0.401422        -0.913095
 O         2.507958         1.009216        -2.196622
 H        -0.697600        -0.275974         0.576744
 H        -0.233628         1.284117        -0.226480
 H        -0.268321        -0.166846        -1.179776
 H         1.930604         1.800831         1.243156
 H         2.014757         0.470116         2.273415
 H         4.377324         0.853933         0.536233
 H         4.941318        -1.997352         0.038722
 H         1.374791        -2.114145        -0.465638
 H         2.090100        -2.001067         1.148051
 H         2.971665         0.470775        -2.804215
