19
Iteration:  4398charge 0 multiplicity 1
 C        -0.150654         0.309370        -0.265730
 C         1.322155         0.015607         0.045675
 C         2.112929         0.553206         1.231839
 C         3.366543         0.428098         0.378667
 C         3.204460        -0.872382        -0.333393
 O         4.520784        -1.529177        -0.608845
 C         1.847723        -1.486480         0.063260
 C         2.635235         0.380652        -0.905138
 O         2.545657         1.088606        -2.153308
 H        -0.596726         0.438593         0.642640
 H        -0.096132         1.342520        -0.603407
 H        -0.649016        -0.309764        -0.989526
 H         1.811718         1.673248         1.395639
 H         2.056862        -0.251944         2.090467
 H         4.348086         0.838341         0.638235
 H         4.386240        -2.404887        -0.921343
 H         1.467881        -2.058904        -0.844841
 H         1.828474        -1.982465         1.033286
 H         3.054792         1.859307        -2.132739
