19
Iteration:   596
 C        -0.007726         0.320812        -0.300791
 C         1.420973         0.010029         0.156844
 C         2.139911         0.706125         1.275981
 C         3.421080         0.481185         0.425878
 C         3.208794        -0.866259        -0.328113
 O         4.292585        -1.515262        -0.810155
 C         1.970345        -1.476306         0.178598
 C         2.544684         0.332724        -0.903581
 O         2.468475         0.952479        -2.184981
 H        -0.627290         0.263765         0.566291
 H        -0.140118         1.371666        -0.712567
 H        -0.445883        -0.416234        -1.044093
 H         1.844776         1.671681         1.463199
 H         2.088172         0.202898         2.237488
 H         4.398015         0.977500         0.480187
 H         4.922314        -1.414696        -0.211971
 H         1.478529        -2.046051        -0.714925
 H         1.937952        -1.820346         1.200638
 H         2.717286         0.146017        -2.708921
