19
Iteration:  4146
 C        -0.121899         0.251092        -0.350355
 C         1.306948        -0.113290         0.099973
 C         2.080711         0.807381         1.251721
 C         3.362430         0.589187         0.443606
 C         3.209914        -0.896176        -0.308879
 O         4.328671        -1.644676        -0.841960
 C         1.930924        -1.517453         0.139470
 C         2.582724         0.341889        -0.842724
 O         2.723838         0.990441        -2.049460
 H        -0.903561        -0.222287         0.214966
 H        -0.175397         1.395869        -0.162446
 H        -0.364761        -0.087527        -1.411862
 H         1.803634         1.815957         1.189228
 H         2.008032         0.357314         2.148810
 H         4.387861         1.043760         0.637021
 H         4.502127        -1.019411        -1.535361
 H         1.470798        -2.164038        -0.638328
 H         1.828581        -2.028275         1.101565
 H         3.116794         1.840836        -1.776588
