19
Iteration:  1964
 C        -0.132933         0.133024        -0.373640
 C         1.318876         0.030724         0.114793
 C         2.135370         0.588712         1.248747
 C         3.365026         0.504963         0.446497
 C         3.187160        -0.864768        -0.352895
 O         4.402205        -1.450826        -0.785764
 C         1.878732        -1.506102         0.164084
 C         2.529056         0.367205        -0.888096
 O         2.693741         1.122439        -2.076935
 H        -0.731290        -0.166546         0.466738
 H        -0.472068         1.203525        -0.432093
 H        -0.317065        -0.475224        -1.271479
 H         1.971361         1.680764         1.471205
 H         2.160339        -0.155503         2.105753
 H         4.474951         0.844605         0.571205
 H         4.062235        -2.320945        -1.198770
 H         1.384686        -2.028890        -0.745273
 H         1.836121        -1.988632         1.182627
 H         3.455016         1.655689        -1.965112
