19
Iteration:  1015charge 0 multiplicity 1
 C        -0.050518         0.160974        -0.209703
 C         1.435846         0.021554         0.097666
 C         2.116999         0.765381         1.246342
 C         3.393893         0.582428         0.412754
 C         3.254935        -0.814094        -0.365697
 O         4.414463        -1.549622        -0.754215
 C         1.937496        -1.486156         0.125089
 C         2.567626         0.333756        -0.915013
 O         2.431341         0.922285        -2.174970
 H        -0.799513        -0.055505         0.677627
 H        -0.085332         1.227710        -0.456939
 H        -0.349203        -0.408902        -1.058696
 H         1.673719         1.709816         1.304926
 H         2.052319         0.335551         2.312672
 H         4.442370         1.107414         0.431515
 H         4.261249        -2.354526        -0.455295
 H         1.495834        -2.008834        -0.742556
 H         1.792723        -2.071429         1.017149
 H         2.842310         1.817896        -2.170924
