19
Iteration:  4198
 C        -0.158750         0.286727        -0.363108
 C         1.354715         0.052613         0.039738
 C         2.157339         0.567559         1.216677
 C         3.455010         0.456393         0.353768
 C         3.217316        -0.925099        -0.283000
 O         4.422030        -1.591737        -0.592292
 C         1.881301        -1.505808         0.098050
 C         2.606109         0.405864        -0.916898
 O         2.538320         1.138862        -2.077689
 H        -0.846492         0.216087         0.457802
 H        -0.266775         1.204388        -1.024024
 H        -0.386071        -0.598184        -0.995267
 H         1.880637         1.655945         1.288940
 H         2.230767         0.017690         2.269533
 H         4.460702         0.940708         0.571710
 H         4.040141        -2.131511        -1.427480
 H         1.515221        -2.064476        -0.748617
 H         1.788635        -2.070485         1.027544
 H         2.798305         2.047908        -1.741247
