19
Iteration:  2882
 C        -0.098269         0.209739        -0.197786
 C         1.288834        -0.016896         0.080611
 C         2.115463         0.634763         1.303791
 C         3.322386         0.628704         0.453365
 C         3.274691        -0.863972        -0.227659
 O         4.379225        -1.587083        -0.738623
 C         1.890641        -1.448507        -0.113596
 C         2.545789         0.503909        -0.855771
 O         2.719065         0.903066        -2.156651
 H        -0.742613         0.043581         0.751477
 H        -0.152271         1.336086        -0.478745
 H        -0.461443        -0.359122        -1.225963
 H         1.879037         1.562378         1.797416
 H         2.293531        -0.027857         2.107612
 H         4.180958         1.178354         0.671544
 H         4.150143        -2.390045        -1.286690
 H         1.648759        -1.881297        -1.152563
 H         1.572573        -2.152117         0.679643
 H         2.724315         1.889199        -2.156414
