19
Iteration:  3618
 C        -0.138177         0.306794        -0.274784
 C         1.271004        -0.067787         0.089030
 C         2.089825         0.672980         1.216573
 C         3.343428         0.501671         0.439853
 C         3.228020        -0.857645        -0.290289
 O         4.381829        -1.515779        -0.841226
 C         1.891890        -1.493134         0.101048
 C         2.614070         0.365053        -0.855036
 O         2.779512         0.940617        -2.030751
 H        -1.014128        -0.054274         0.444041
 H        -0.359929         1.378006        -0.157963
 H        -0.363775         0.041810        -1.248689
 H         1.706702         1.779064         1.175410
 H         1.997155         0.312918         2.275547
 H         4.355479         0.934508         0.686269
 H         4.216063        -1.955238        -1.805094
 H         1.645460        -2.113189        -0.758845
 H         1.723166        -2.186364         0.971480
 H         2.656360         1.953277        -2.047313
