19
Iteration:   584charge 0 multiplicity 1
 C        -0.143019         0.265120        -0.241791
 C         1.334399         0.042729         0.036152
 C         2.223281         0.701011         1.278903
 C         3.416230         0.561033         0.386620
 C         3.257937        -0.841969        -0.253060
 O         4.304874        -1.524158        -0.863738
 C         1.904771        -1.432913         0.193305
 C         2.598425         0.354968        -0.868140
 O         2.526896         0.869955        -2.129986
 H        -0.747293         0.121353         0.587956
 H        -0.177334         1.358540        -0.507803
 H        -0.557781        -0.307556        -1.162032
 H         2.027517         1.726011         1.428494
 H         2.138291         0.083396         2.149577
 H         4.379385         0.987009         0.497436
 H         5.184930        -1.546360        -0.301056
 H         1.386425        -2.036520        -0.658937
 H         1.738196        -2.116078         1.001379
 H         2.942563         0.429436        -2.825922
