19
Iteration:  1014
 C        -0.045342         0.163920        -0.214732
 C         1.438569         0.015035         0.108350
 C         2.117700         0.768518         1.252220
 C         3.389467         0.572795         0.417003
 C         3.251188        -0.819624        -0.359845
 O         4.408824        -1.543896        -0.756677
 C         1.946497        -1.472206         0.120203
 C         2.563198         0.336525        -0.923525
 O         2.433831         0.916780        -2.177115
 H        -0.783119        -0.049015         0.672212
 H        -0.048511         1.250182        -0.459935
 H        -0.365069        -0.431383        -1.075076
 H         1.656610         1.718819         1.310183
 H         2.062615         0.322050         2.283821
 H         4.444895         1.125867         0.457682
 H         4.270656        -2.356637        -0.451757
 H         1.473257        -2.014015        -0.756778
 H         1.813647        -2.082346         1.018549
 H         2.791912         1.798822        -2.164421
