19
Iteration:  1722
 C        -0.082678         0.388299        -0.167500
 C         1.373551        -0.124617         0.028354
 C         1.906019         0.634452         1.246197
 C         3.294468         0.496196         0.480613
 C         3.266746        -0.878608        -0.310954
 O         4.465598        -1.311220        -0.910699
 C         1.949611        -1.592748         0.047359
 C         2.572671         0.335937        -0.854227
 O         2.723257         0.873286        -2.115663
 H        -0.495214         0.224133         0.828463
 H        -0.042610         1.532105        -0.302595
 H        -0.769834         0.274294        -1.098461
 H         1.524925         1.638957         1.404220
 H         1.692763         0.178890         2.274288
 H         4.162229         0.949401         0.635745
 H         4.560404        -2.306442        -0.496760
 H         1.316522        -2.238906        -0.619812
 H         1.781000        -2.199847         0.915309
 H         2.630048         1.873738        -2.072675
