19
Iteration:   559
 C        -0.136887         0.240905        -0.094663
 C         1.328305         0.054960         0.128638
 C         2.138102         0.773335         1.234537
 C         3.374011         0.598471         0.392226
 C         3.225928        -0.870503        -0.298169
 O         4.306766        -1.507193        -0.929549
 C         1.893340        -1.450450         0.124381
 C         2.553447         0.356650        -0.858281
 O         2.711858         0.809544        -2.172587
 H        -0.699424        -0.307659         0.675003
 H        -0.405279         1.270488         0.047516
 H        -0.458508        -0.082937        -1.113491
 H         1.714324         1.857090         1.157306
 H         1.973260         0.311481         2.211753
 H         4.321376         1.145486         0.384852
 H         4.886417        -1.860002        -0.362119
 H         1.380468        -1.966706        -0.640381
 H         1.667372        -2.111880         0.959095
 H         3.540104         0.497319        -2.541619
