19
Iteration:  1415charge 0 multiplicity 1
 C        -0.168770         0.072917        -0.165120
 C         1.341758        -0.023587         0.036409
 C         2.137077         0.720426         1.188798
 C         3.390607         0.555764         0.329512
 C         3.293578        -0.872727        -0.319837
 O         4.376663        -1.598683        -0.733868
 C         1.973707        -1.453631         0.132436
 C         2.577584         0.367306        -0.966655
 O         2.527302         1.111996        -2.121203
 H        -0.572868        -0.503784         0.571053
 H        -0.759843         1.046759        -0.234062
 H        -0.333780        -0.459958        -1.202293
 H         1.757718         1.768787         1.224417
 H         2.110600         0.333987         2.203885
 H         4.351848         1.003225         0.460059
 H         4.818577        -1.695119         0.037886
 H         1.602540        -2.162601        -0.655959
 H         1.963322        -1.936312         1.151581
 H         2.784686         2.023558        -2.015891
