19
Iteration:  1089
 C        -0.224032         0.073326        -0.128919
 C         1.324822        -0.100013         0.063167
 C         2.108874         0.812745         1.193358
 C         3.395365         0.637921         0.307963
 C         3.258981        -0.812052        -0.336653
 O         4.405242        -1.541746        -0.716532
 C         1.941883        -1.473130         0.173178
 C         2.627797         0.344294        -0.941236
 O         2.687271         1.056423        -2.109135
 H        -0.676472        -0.559995         0.618855
 H        -0.603048         1.116642         0.006635
 H        -0.519761        -0.377637        -1.111517
 H         1.897281         1.928979         1.355424
 H         1.992878         0.399616         2.179826
 H         4.476601         1.083282         0.381679
 H         4.138451        -2.359709        -1.246760
 H         1.515976        -2.129603        -0.676378
 H         1.915840        -1.940985         1.201939
 H         1.924985         0.846607        -2.771548
