19
Iteration:  3076
 C        -0.125723         0.390137        -0.166769
 C         1.322296        -0.111339        -0.049358
 C         1.989790         0.558708         1.174118
 C         3.331917         0.487076         0.460248
 C         3.267678        -0.841263        -0.300900
 O         4.396497        -1.468741        -0.746719
 C         1.924551        -1.497351         0.097679
 C         2.623781         0.372746        -0.874616
 O         2.732880         0.952387        -2.138438
 H        -0.751353         0.312270         0.811206
 H        -0.090274         1.519781        -0.321558
 H        -0.689334        -0.222524        -0.844580
 H         1.591900         1.592320         1.198337
 H         1.883648         0.231448         2.240011
 H         4.364398         0.715824         0.794866
 H         4.212378        -1.961631        -1.632693
 H         1.584823        -2.256344        -0.632302
 H         1.798459        -1.909797         1.115857
 H         2.757381         1.960500        -1.960387
