19
Iteration:   597charge 0 multiplicity 1
 C         0.005190         0.325651        -0.302832
 C         1.424760         0.004275         0.157439
 C         2.129190         0.707285         1.276955
 C         3.418243         0.477061         0.425182
 C         3.209124        -0.865164        -0.331571
 O         4.294588        -1.518241        -0.811074
 C         1.966067        -1.476220         0.175673
 C         2.539401         0.335769        -0.903483
 O         2.465414         0.957390        -2.185494
 H        -0.662108         0.274241         0.585409
 H        -0.144764         1.365097        -0.730753
 H        -0.401920        -0.407616        -1.014844
 H         1.845483         1.677824         1.450278
 H         2.110271         0.212645         2.256594
 H         4.425481         0.973204         0.484052
 H         4.927572        -1.401638        -0.169168
 H         1.486192        -2.076379        -0.697672
 H         1.972501        -1.835425         1.228772
 H         2.704369         0.119475        -2.725807
