19
Iteration:   580charge 0 multiplicity 1
 C        -0.157413         0.275895        -0.223045
 C         1.331005         0.028139         0.021454
 C         2.204115         0.700514         1.264953
 C         3.418838         0.579835         0.365841
 C         3.280503        -0.843651        -0.228523
 O         4.320895        -1.534693        -0.887088
 C         1.852318        -1.426665         0.171877
 C         2.596063         0.367276        -0.862882
 O         2.542864         0.858748        -2.111441
 H        -0.875282         0.031519         0.631825
 H        -0.328415         1.310311        -0.460814
 H        -0.483012        -0.281527        -1.099696
 H         2.036527         1.860545         1.466225
 H         2.265305         0.095777         2.220818
 H         4.437246         0.969281         0.517255
 H         5.128350        -1.555870        -0.303890
 H         1.517074        -2.019212        -0.622532
 H         1.800725        -2.123322         1.045564
 H         3.102170         0.383136        -2.843496
