19
Iteration:  3130
 C        -0.122650         0.154785        -0.390996
 C         1.388550         0.029939         0.021139
 C         2.169514         0.663215         1.243553
 C         3.452530         0.414726         0.432607
 C         3.215521        -0.889170        -0.351673
 O         4.345823        -1.612781        -0.588831
 C         1.838712        -1.490778         0.113099
 C         2.665433         0.453928        -0.866504
 O         2.497248         1.138469        -2.105470
 H        -0.814198         0.127701         0.628190
 H        -0.349223         1.205725        -0.875898
 H        -0.328467        -0.590528        -1.180539
 H         2.102999         1.758911         1.375945
 H         2.169873         0.062292         2.055498
 H         4.503193         0.802640         0.613010
 H         4.600154        -1.646642        -1.582012
 H         1.315473        -2.076356        -0.671515
 H         1.819281        -2.098234         1.077452
 H         2.930670         2.031972        -2.042455
