19
Iteration:  1582charge 0 multiplicity 1
 C        -0.161439         0.151917        -0.147613
 C         1.314373        -0.040123         0.083126
 C         2.058182         0.679533         1.245289
 C         3.354334         0.455317         0.382368
 C         3.179927        -0.854862        -0.356765
 O         4.429883        -1.384327        -0.749007
 C         1.936068        -1.478459         0.061619
 C         2.587387         0.386592        -0.919547
 O         2.740304         0.973562        -2.129040
 H        -0.654213        -0.389773         0.523797
 H        -0.478806         1.233091        -0.017353
 H        -0.456829        -0.115184        -1.190477
 H         1.840191         1.810903         1.248982
 H         1.847501         0.326799         2.213083
 H         4.371206         0.758829         0.523195
 H         4.253334        -2.326154        -0.920048
 H         1.445092        -2.056196        -0.772439
 H         1.914567        -2.144144         0.984571
 H         2.712219         1.908269        -2.033659
