19
Iteration:  2530
 C        -0.153759         0.293702        -0.200694
 C         1.326235        -0.015993        -0.048428
 C         2.030835         0.502279         1.218626
 C         3.322601         0.460945         0.535958
 C         3.271355        -0.826942        -0.372945
 O         4.395083        -1.528481        -0.648046
 C         1.969536        -1.500232         0.054417
 C         2.653483         0.420800        -0.927530
 O         2.679226         1.041552        -2.172346
 H        -0.551321         0.279782         0.774463
 H        -0.154477         1.311230        -0.589994
 H        -0.876039        -0.282174        -0.816533
 H         1.760592         1.588524         1.545592
 H         1.797278         0.043410         2.185023
 H         4.327636         0.961359         0.757257
 H         4.421018        -2.013389        -1.397765
 H         1.541643        -2.064884        -0.779472
 H         1.894434        -1.961699         1.014783
 H         2.350650         1.940434        -1.987477
