19
Iteration:  2703
 C        -0.119248         0.360875        -0.204529
 C         1.315114        -0.068564        -0.025196
 C         2.061957         0.594955         1.277243
 C         3.296723         0.500461         0.400027
 C         3.203460        -0.906135        -0.386613
 O         4.404310        -1.527980        -0.617403
 C         2.002829        -1.548899         0.025866
 C         2.609786         0.379937        -0.891388
 O         2.622633         1.042839        -2.151149
 H        -0.696890         0.341487         0.734527
 H        -0.043338         1.493794        -0.428369
 H        -0.764493        -0.161740        -0.979270
 H         1.704291         1.537250         1.502380
 H         2.022346         0.021052         2.185574
 H         4.217405         0.858171         0.728087
 H         4.606519        -1.624468        -1.484434
 H         1.555869        -2.156723        -0.747256
 H         1.995625        -2.048683         1.037781
 H         3.257750         1.775369        -1.903453
