19
Iteration:  3287charge 0 multiplicity 1
 C        -0.160446         0.315659        -0.282899
 C         1.337302        -0.039349         0.045226
 C         2.017294         0.651850         1.192133
 C         3.363694         0.428889         0.461495
 C         3.215677        -0.914483        -0.291624
 O         4.358021        -1.541836        -0.841750
 C         1.925572        -1.499981         0.213419
 C         2.600985         0.323256        -0.901837
 O         2.749429         1.038428        -2.131860
 H        -0.874977         0.190300         0.647680
 H        -0.139002         1.398346        -0.523913
 H        -0.586839        -0.434859        -1.076201
 H         1.799747         1.696420         1.339285
 H         1.727729         0.264183         2.141791
 H         4.409147         0.585066         0.687023
 H         4.897898        -0.773270        -1.162498
 H         1.536647        -2.331779        -0.437870
 H         2.018848        -1.706480         1.281982
 H         2.628560         1.995100        -1.862612
