19
Iteration:   168
 C        -0.159775         0.205886        -0.025201
 C         1.308874         0.067804         0.053325
 C         2.073177         0.748689         1.181423
 C         3.353342         0.559928         0.457233
 C         3.243919        -0.857413        -0.233918
 O         4.317771        -1.492888        -0.957284
 C         1.853393        -1.425562         0.188229
 C         2.647014         0.349038        -0.931868
 O         2.728441         0.865213        -2.254559
 H        -0.538546         0.400078         0.885475
 H        -0.462831         1.000427        -0.683117
 H        -0.687371        -0.777992        -0.366373
 H         1.936155         1.796983         1.407782
 H         1.950590         0.214438         2.066195
 H         4.341208         0.817417         0.739494
 H         4.781284        -2.191313        -0.209399
 H         1.451076        -2.071883        -0.675658
 H         1.688730        -1.818516         1.178887
 H         3.692810         0.927665        -2.545507
