19
Iteration:   622charge 0 multiplicity 1
 C        -0.045271         0.359683        -0.356284
 C         1.384438        -0.070992         0.167077
 C         2.149848         0.748525         1.210794
 C         3.358517         0.566308         0.343271
 C         3.231128        -0.949692        -0.377106
 O         4.428180        -1.568135        -0.813011
 C         1.963068        -1.537364         0.219259
 C         2.576139         0.307174        -0.888367
 O         2.435785         1.036352        -2.065316
 H        -0.754487         0.593094         0.557025
 H         0.086414         1.368600        -0.746156
 H        -0.563668        -0.207948        -1.064002
 H         1.827014         1.818353         1.284064
 H         2.111639         0.349942         2.267411
 H         4.390256         0.963500         0.486187
 H         4.944223        -1.757835        -0.059497
 H         1.392849        -2.109983        -0.468111
 H         1.921709        -1.894764         1.316597
 H         2.139958         0.330090        -2.653906
