19
Iteration:   156charge 0 multiplicity 1
 C        -0.142904         0.181449        -0.003665
 C         1.371183        -0.001264         0.067123
 C         2.027345         0.784996         1.250824
 C         3.407729         0.519623         0.453504
 C         3.189769        -0.814322        -0.355985
 O         4.250434        -1.477409        -0.903291
 C         1.876791        -1.409246         0.149255
 C         2.628959         0.415929        -0.928571
 O         2.789524         0.827651        -2.247903
 H        -0.483514         0.271514         0.989978
 H        -0.462201         1.042176        -0.562271
 H        -0.618383        -0.732760        -0.472953
 H         1.620027         1.731578         1.166615
 H         1.891013         0.428163         2.208362
 H         4.395389         0.997630         0.533981
 H         4.551924        -2.078601        -0.339280
 H         1.385653        -2.101257        -0.642335
 H         1.832090        -1.916592         1.085589
 H         3.676499         0.662873        -2.456524
