19
Iteration:   415charge 0 multiplicity 1
 C        -0.013266         0.319284        -0.284655
 C         1.387045        -0.076660         0.155774
 C         2.189317         0.791317         1.159827
 C         3.372842         0.493255         0.299473
 C         3.178202        -0.922745        -0.321753
 O         4.325323        -1.604021        -0.720506
 C         1.998872        -1.593405         0.216228
 C         2.576041         0.296449        -0.967089
 O         2.421089         1.186903        -2.079279
 H        -0.588045         0.698105         0.650355
 H         0.067546         1.159524        -0.940417
 H        -0.537270        -0.466395        -0.715290
 H         1.830942         1.884764         1.061049
 H         2.225550         0.502849         2.143136
 H         4.364900         0.895763         0.488108
 H         4.922290        -1.860968         0.022539
 H         1.576920        -2.168122        -0.580947
 H         2.017780        -2.328311         1.106346
 H         2.632979         0.699763        -2.837068
