19
Iteration:  1524charge 0 multiplicity 1
 C        -0.092568         0.282833        -0.239117
 C         1.295386        -0.086423         0.116834
 C         2.102384         0.620964         1.307217
 C         3.341212         0.581302         0.522175
 C         3.236693        -0.777357        -0.310179
 O         4.358538        -1.435118        -0.919784
 C         1.954211        -1.563120         0.045634
 C         2.561092         0.451121        -0.847824
 O         2.682290         0.780936        -2.157279
 H        -0.793806         0.172442         0.583964
 H        -0.083943         1.373200        -0.493415
 H        -0.531367        -0.411524        -1.024733
 H         1.702168         1.622678         1.344762
 H         1.803765         0.082508         2.247438
 H         4.345231         1.131099         0.776635
 H         5.071575        -1.003656        -0.506275
 H         1.556348        -2.239252        -0.776245
 H         1.939806        -2.042989         1.058638
 H         2.293779         1.690517        -2.426550
