19
Iteration:  3660
 C        -0.091525         0.188984        -0.276119
 C         1.331179         0.058070         0.054490
 C         2.046245         0.643485         1.300701
 C         3.353205         0.465284         0.563599
 C         3.174902        -0.823955        -0.330530
 O         4.243372        -1.397225        -0.956408
 C         1.860008        -1.409282         0.086978
 C         2.617493         0.456779        -0.753539
 O         2.868142         0.729122        -2.136552
 H        -0.787772        -0.101982         0.650942
 H        -0.266410         1.245345        -0.666039
 H        -0.352983        -0.581805        -1.011722
 H         1.845439         1.553426         1.615468
 H         1.953099         0.088121         2.172892
 H         4.394210         0.617054         0.971022
 H         4.332039        -0.838678        -1.665127
 H         1.330048        -2.101618        -0.583426
 H         1.835012        -1.769291         1.121922
 H         3.172670         1.650740        -2.175186
