19
Iteration:  3686
 C        -0.198244         0.311837        -0.235135
 C         1.276979        -0.012236         0.071972
 C         2.049489         0.656979         1.270436
 C         3.356269         0.494817         0.519032
 C         3.248058        -0.849494        -0.273559
 O         4.315527        -1.472377        -0.923673
 C         1.899683        -1.491985         0.067811
 C         2.586619         0.395759        -0.771417
 O         2.912609         0.811728        -2.144654
 H        -0.872890        -0.073158         0.735897
 H        -0.393523         1.349575        -0.462472
 H        -0.478535        -0.351229        -1.076921
 H         1.816518         1.809937         1.588829
 H         1.937178         0.275406         2.348136
 H         4.253471         1.022726         0.693652
 H         4.441586        -0.927125        -1.657744
 H         1.622419        -2.045535        -0.877235
 H         1.621222        -2.207027         0.911510
 H         2.522509         1.667490        -2.206333
