19
Iteration:  4763charge 0 multiplicity 1
 C        -0.129895         0.327762        -0.236981
 C         1.345039        -0.013554        -0.015175
 C         2.098857         0.604422         1.254148
 C         3.405077         0.380071         0.485488
 C         3.227144        -0.894844        -0.331323
 O         4.451669        -1.532502        -0.613836
 C         1.836171        -1.465776        -0.001989
 C         2.588400         0.398696        -0.896073
 O         2.618999         1.063550        -2.132787
 H        -0.821199        -0.481920         0.084970
 H        -0.455776         1.370468         0.220805
 H        -0.353501         0.245745        -1.400261
 H         1.962343         1.659181         1.328248
 H         1.797699         0.210830         2.167153
 H         4.404657         0.796865         0.520354
 H         4.497491        -2.232834        -1.388652
 H         1.300124        -2.016107        -0.771619
 H         1.576578        -1.909002         0.991308
 H         3.250568         1.847598        -2.201779
