19
Iteration:  2418charge 0 multiplicity 1
 C        -0.098090         0.217328        -0.397736
 C         1.282712        -0.053548         0.081007
 C         2.193163         0.598343         1.258022
 C         3.344716         0.499493         0.400308
 C         3.289405        -0.877285        -0.281787
 O         4.414676        -1.562734        -0.658584
 C         1.841208        -1.503218         0.003634
 C         2.510757         0.418081        -0.820592
 O         2.621190         1.094126        -2.039867
 H        -0.716082        -0.486740         0.119407
 H        -0.446556         1.257595         0.020053
 H        -0.262210         0.257065        -1.457844
 H         1.790321         1.606355         1.517197
 H         2.299978         0.118427         2.240473
 H         4.184538         1.107997         0.248850
 H         4.298807        -1.574417        -1.739769
 H         1.428270        -2.001181        -0.816677
 H         1.784614        -2.078761         0.925034
 H         3.432194         1.726867        -2.089257
