19
Iteration:  2702charge 0 multiplicity 1
 C        -0.123614         0.358161        -0.211483
 C         1.314393        -0.066547        -0.028526
 C         2.066609         0.585503         1.279956
 C         3.297486         0.495212         0.403467
 C         3.207031        -0.907376        -0.387150
 O         4.403137        -1.527293        -0.615637
 C         1.999427        -1.539659         0.030789
 C         2.614828         0.389846        -0.903145
 O         2.619206         1.038475        -2.149271
 H        -0.714180         0.322394         0.759517
 H        -0.069687         1.512898        -0.430909
 H        -0.766615        -0.170542        -0.961447
 H         1.714394         1.521758         1.530259
 H         2.025759         0.048202         2.206150
 H         4.221552         0.858708         0.744171
 H         4.615922        -1.627428        -1.503718
 H         1.562282        -2.147950        -0.743526
 H         1.990991        -2.031175         1.040045
 H         3.281676         1.777140        -1.915773
