19
Iteration:   771charge 0 multiplicity 1
 C        -0.123721         0.299157        -0.248186
 C         1.317367        -0.041802         0.047267
 C         2.136985         0.693106         1.303605
 C         3.456955         0.656806         0.387008
 C         3.249039        -0.863320        -0.233688
 O         4.389445        -1.352196        -0.931208
 C         1.889893        -1.471732         0.181619
 C         2.546960         0.293453        -0.863617
 O         2.575525         0.811415        -2.127866
 H        -0.742204         0.013313         0.558318
 H        -0.202540         1.431343        -0.325306
 H        -0.496815        -0.129250        -1.241577
 H         1.924141         1.781645         1.537448
 H         2.227145         0.052559         2.254120
 H         4.473863         0.813956         0.692661
 H         4.689511        -2.076449        -0.427746
 H         1.504220        -2.195864        -0.622230
 H         1.506321        -1.871393         1.063043
 H         2.729510         0.083628        -2.743024
