19
Iteration:  2502charge 0 multiplicity 1
 C        -0.098874         0.271209        -0.305882
 C         1.245691        -0.090171         0.096782
 C         2.152816         0.667406         1.271666
 C         3.315190         0.543996         0.369682
 C         3.181103        -0.867524        -0.346668
 O         4.466505        -1.419217        -0.731548
 C         1.829087        -1.626263         0.053061
 C         2.506100         0.348467        -0.870695
 O         2.747719         1.034901        -2.027762
 H        -0.858818         0.283180         0.633138
 H        -0.094420         1.290954        -0.709513
 H        -0.499280        -0.408574        -1.099769
 H         1.686358         1.635424         1.413816
 H         2.255463         0.146786         2.278145
 H         4.293056         0.826509         0.294168
 H         4.552152        -1.836153        -1.575243
 H         1.384144        -2.168681        -0.847588
 H         1.601497        -2.191233         1.021059
 H         3.416158         1.637515        -1.773677
