19
Iteration:   983charge 0 multiplicity 1
 C        -0.133936         0.326784        -0.314092
 C         1.382767        -0.018377         0.099750
 C         2.156895         0.704276         1.295278
 C         3.452716         0.580453         0.434299
 C         3.227118        -0.862603        -0.305519
 O         4.382806        -1.422751        -0.927573
 C         1.957427        -1.543506         0.201829
 C         2.548183         0.390783        -0.881216
 O         2.549542         0.789650        -2.133755
 H        -0.891251         0.235751         0.560621
 H        -0.114946         1.344593        -0.629575
 H        -0.444283        -0.273579        -1.106625
 H         1.646737         1.629282         1.377236
 H         2.100786         0.035129         2.263088
 H         4.473562         1.144455         0.559722
 H         4.769641        -2.029716        -0.050582
 H         1.575321        -2.212202        -0.538376
 H         1.865697        -2.008586         1.151925
 H         1.747288         1.359115        -2.285459
