19
Iteration:  2043
 C        -0.136445         0.297831        -0.217818
 C         1.341583        -0.051357         0.093110
 C         2.121870         0.634819         1.199944
 C         3.369802         0.453028         0.367829
 C         3.186298        -0.946075        -0.407287
 O         4.489941        -1.468033        -0.635383
 C         1.851392        -1.528165         0.040606
 C         2.553090         0.317656        -0.913628
 O         2.673671         1.135573        -2.011038
 H        -0.873123        -0.253397         0.180213
 H        -0.378130         1.440816        -0.032131
 H        -0.236124         0.213436        -1.270999
 H         1.845906         1.620349         1.594990
 H         2.101845         0.080980         2.134800
 H         4.364592         0.686598         0.490544
 H         4.750844        -1.442732        -1.484021
 H         1.339935        -2.194362        -0.725711
 H         1.702522        -2.059362         1.032471
 H         2.056839         1.127047        -2.824078
