19
Iteration:  3633
 C        -0.157506         0.257179        -0.285427
 C         1.298312        -0.021324         0.113307
 C         2.059021         0.682743         1.270516
 C         3.377369         0.508415         0.499218
 C         3.256246        -0.870372        -0.249766
 O         4.307624        -1.433955        -0.923650
 C         1.867153        -1.490011         0.074160
 C         2.574143         0.354011        -0.769587
 O         2.853360         0.861212        -2.121815
 H        -0.832603        -0.154408         0.337495
 H        -0.114561         1.294511        -0.480084
 H        -0.396218        -0.299990        -1.237501
 H         1.796850         1.837719         1.406387
 H         2.038406         0.224595         2.336994
 H         4.346651         0.907576         0.673541
 H         3.925006        -1.490667        -1.766077
 H         1.347445        -1.973318        -0.788107
 H         1.779327        -1.996173         1.044055
 H         2.979651         1.789139        -1.931374
