19
Iteration:   921charge 0 multiplicity 1
 C        -0.188217         0.202564        -0.071887
 C         1.331281         0.012870         0.088393
 C         2.137849         0.755555         1.238181
 C         3.382808         0.553011         0.337752
 C         3.268699        -0.875155        -0.342226
 O         4.312149        -1.604002        -0.780135
 C         1.954289        -1.443026         0.086030
 C         2.578062         0.407974        -0.912009
 O         2.703199         0.895087        -2.172506
 H        -0.810783        -0.393333         0.622109
 H        -0.523337         1.286797        -0.158640
 H        -0.520119        -0.287046        -1.092665
 H         1.644907         1.796425         1.214675
 H         2.085628         0.368007         2.252116
 H         4.357263         0.955611         0.610892
 H         5.211556        -1.136891        -0.588466
 H         1.644254        -2.111131        -0.740171
 H         1.897006        -1.978510         1.128379
 H         1.930865         1.498962        -2.407241
