19
Iteration:  3970
 C        -0.051513         0.202409        -0.369089
 C         1.357467         0.035949         0.041449
 C         2.034266         0.723469         1.209701
 C         3.399122         0.460580         0.488104
 C         3.247376        -0.898372        -0.398487
 O         4.312916        -1.626777        -0.744663
 C         1.937505        -1.503487         0.167699
 C         2.638103         0.421542        -0.852780
 O         2.604809         1.067160        -2.043819
 H        -0.736851        -0.091270         0.326637
 H        -0.320511         1.226202        -0.531663
 H        -0.123524        -0.179032        -1.400476
 H         1.853824         1.934802         1.352721
 H         2.016436         0.515494         2.352893
 H         4.356522         0.958683         0.593080
 H         4.115681        -2.398423        -1.419463
 H         1.510545        -2.213357        -0.571015
 H         2.061719        -2.068761         1.100872
 H         2.570529         1.990729        -1.928256
