19
Iteration:  3873charge 0 multiplicity 1
 C        -0.166876         0.288318        -0.159864
 C         1.293618         0.064885         0.019635
 C         2.037577         0.622691         1.299652
 C         3.301227         0.555445         0.524088
 C         3.229213        -0.832979        -0.286778
 O         4.417846        -1.503759        -0.822714
 C         1.842684        -1.389959         0.004633
 C         2.660517         0.382506        -0.860538
 O         2.864563         0.764619        -2.183372
 H        -0.663715        -0.114621         0.938393
 H        -0.407734         1.336607        -0.170662
 H        -0.636199        -0.212988        -1.044506
 H         1.612758         1.508915         1.707286
 H         1.843183         0.014401         2.155875
 H         4.247863         0.963908         0.949106
 H         4.278491        -1.528814        -1.871349
 H         1.666835        -2.009602        -0.905432
 H         1.496990        -2.007956         0.850027
 H         2.418962         1.609891        -2.308737
