19
Iteration:  2164charge 0 multiplicity 1
 C        -0.168747         0.331935        -0.262821
 C         1.302214         0.003636         0.020760
 C         2.009518         0.533283         1.236667
 C         3.275023         0.420237         0.439952
 C         3.303669        -0.922079        -0.371495
 O         4.367884        -1.580821        -0.868234
 C         1.983008        -1.485229         0.165326
 C         2.562199         0.356793        -0.893603
 O         2.731123         1.172091        -1.985145
 H        -0.792048        -0.009631         0.494615
 H        -0.244511         1.479472        -0.359318
 H        -0.505582         0.047281        -1.234272
 H         1.746022         1.592233         1.410606
 H         1.956318        -0.002124         2.178642
 H         4.292059         0.902520         0.564686
 H         5.244630        -1.019560        -0.698100
 H         1.458057        -2.203629        -0.464905
 H         1.948944        -1.753548         1.216812
 H         2.843449         0.672058        -2.777504
