19
Iteration:  4740charge 0 multiplicity 1
 C        -0.094482         0.265622        -0.179761
 C         1.356952         0.018178         0.063566
 C         2.126945         0.653024         1.237274
 C         3.320446         0.518107         0.397341
 C         3.208588        -0.872226        -0.386312
 O         4.426152        -1.616114        -0.501937
 C         1.847787        -1.475151        -0.165017
 C         2.634685         0.404743        -0.925999
 O         2.606764         1.086665        -2.097151
 H        -0.710617        -0.607226         0.254675
 H        -0.425946         1.289839         0.324403
 H        -0.369067         0.104016        -1.304248
 H         1.856275         1.690676         1.521786
 H         1.984474         0.109667         2.126898
 H         4.344999         0.622406         0.768058
 H         4.238859        -2.086639        -1.265689
 H         1.257206        -1.948630        -0.985568
 H         1.739496        -2.138716         0.715408
 H         3.483522         1.324203        -2.361242
