19
Iteration:   586charge 0 multiplicity 1
 C        -0.128213         0.264557        -0.265170
 C         1.341978         0.046087         0.054911
 C         2.226899         0.702091         1.278874
 C         3.411524         0.546398         0.396987
 C         3.244241        -0.844725        -0.267143
 O         4.305124        -1.519282        -0.847264
 C         1.930759        -1.437720         0.191275
 C         2.596059         0.346970        -0.872765
 O         2.515762         0.882763        -2.138444
 H        -0.736167         0.139083         0.654139
 H        -0.123402         1.366082        -0.532377
 H        -0.556625        -0.286929        -1.120998
 H         1.991732         1.689481         1.429816
 H         2.077600         0.072701         2.155480
 H         4.411399         1.023732         0.493247
 H         5.065258        -1.531713        -0.370802
 H         1.367139        -2.011837        -0.666622
 H         1.708120        -2.109306         1.067440
 H         2.910558         0.380862        -2.848473
