19
Iteration:   124charge 0 multiplicity 1
 C        -0.222486         0.217294        -0.048519
 C         1.295454        -0.004191         0.115700
 C         2.093801         0.807259         1.228666
 C         3.390785         0.600280         0.316136
 C         3.267078        -0.886774        -0.216672
 O         4.305007        -1.495064        -0.934793
 C         1.862529        -1.437215         0.182369
 C         2.566201         0.311155        -0.919698
 O         2.840223         0.901647        -2.172072
 H        -0.762290        -0.256703         0.664926
 H        -0.489637         1.263633        -0.096201
 H        -0.544701        -0.265742        -1.049568
 H         1.657479         1.817028         1.318513
 H         2.180158         0.413630         2.225380
 H         4.372262         1.100351         0.362238
 H         5.020754        -2.029200        -0.302594
 H         1.517625        -1.939203        -0.785929
 H         1.669787        -2.031172         1.064101
 H         2.753316         0.164246        -2.897182
