19
Iteration:  2985
 C        -0.157012         0.187627        -0.243114
 C         1.383394         0.009989         0.030195
 C         1.999601         0.668412         1.198942
 C         3.397853         0.571073         0.570527
 C         3.274180        -0.854396        -0.324967
 O         4.333744        -1.700695        -0.794138
 C         1.926623        -1.419540         0.115339
 C         2.688255         0.433879        -0.841676
 O         2.613521         0.984944        -2.170938
 H        -1.001857        -0.348646         0.411426
 H        -0.283310         1.263044        -0.146626
 H        -0.222460        -0.158546        -1.268989
 H         1.699681         1.758249         1.411166
 H         2.035362         0.030166         2.119238
 H         4.329585         1.079999         0.938089
 H         4.574030        -1.291415        -1.691111
 H         1.373703        -1.987424        -0.628782
 H         1.784678        -1.899436         1.121480
 H         3.135091         1.860994        -2.192835
