19
Iteration:  1456
 C        -0.125478         0.058380        -0.209208
 C         1.375967         0.001463         0.090196
 C         2.085224         0.741892         1.240034
 C         3.354681         0.571231         0.363304
 C         3.284435        -0.823039        -0.388687
 O         4.376919        -1.637131        -0.610312
 C         2.017782        -1.496641         0.087067
 C         2.556877         0.406073        -0.939056
 O         2.494487         1.112201        -2.146990
 H        -0.822925        -0.548642         0.443290
 H        -0.422677         1.065011        -0.278171
 H        -0.238474        -0.465436        -1.127316
 H         2.024442         1.778318         1.193803
 H         2.036355         0.360227         2.325417
 H         4.268853         0.974692         0.571244
 H         4.459014        -1.824550        -1.691504
 H         1.648265        -2.168887        -0.694521
 H         2.075597        -2.030088         1.074523
 H         3.164136         1.778046        -1.924598
