19
Iteration:  2917
 C        -0.099145         0.280857        -0.264957
 C         1.342207         0.011585        -0.026395
 C         2.104402         0.673284         1.248389
 C         3.351038         0.378815         0.519581
 C         3.220851        -0.892438        -0.349982
 O         4.436442        -1.504404        -0.726848
 C         1.958184        -1.470076         0.078924
 C         2.588418         0.385652        -0.877743
 O         2.581534         1.032032        -2.118017
 H        -0.775279         0.245599         0.703889
 H        -0.140695         1.291222        -0.670803
 H        -0.560331        -0.536365        -0.968090
 H         1.862853         1.773645         1.366422
 H         1.801852         0.028469         2.046004
 H         4.340226         0.779692         0.819250
 H         4.195521        -2.309744        -1.336052
 H         1.502412        -2.162973        -0.688307
 H         1.882447        -1.940414         1.073492
 H         2.752411         2.007737        -2.066676
