19
Iteration:  1036charge 0 multiplicity 1
 C        -0.199405         0.162468        -0.189033
 C         1.347006        -0.040399         0.051480
 C         2.168551         0.773813         1.121723
 C         3.379321         0.551996         0.273920
 C         3.270185        -0.909764        -0.259924
 O         4.451048        -1.570913        -0.715458
 C         1.970461        -1.439554         0.126160
 C         2.566984         0.377738        -0.932286
 O         2.463173         1.075527        -2.084805
 H        -0.611143        -0.379727         0.773870
 H        -0.512178         1.228917        -0.164515
 H        -0.598966        -0.437562        -1.004975
 H         1.835336         1.774525         1.207440
 H         2.231821         0.309059         2.141464
 H         4.403499         1.081787         0.532986
 H         4.470742        -2.645066        -0.504305
 H         1.488669        -2.212616        -0.539237
 H         1.987408        -1.893613         1.137232
 H         3.370525         1.422159        -2.390871
