19
Iteration:  2035
 C        -0.115678         0.287490        -0.237562
 C         1.343441        -0.033792        -0.011723
 C         2.130863         0.649263         1.231005
 C         3.364964         0.404696         0.375135
 C         3.225394        -0.931710        -0.382106
 O         4.475403        -1.496476        -0.637859
 C         1.822464        -1.517296         0.065119
 C         2.578137         0.347708        -0.879321
 O         2.664615         1.140448        -2.027173
 H        -0.825951        -0.440023         0.277398
 H        -0.377005         1.251456         0.151879
 H        -0.340011         0.153178        -1.303884
 H         1.867354         1.767537         1.326849
 H         2.026310         0.090136         2.180069
 H         4.318159         0.842290         0.542728
 H         4.656199        -1.485685        -1.556817
 H         1.289344        -2.095317        -0.678738
 H         1.880699        -2.104556         1.003047
 H         1.815781         1.273405        -2.524744
