19
Iteration:   666charge 0 multiplicity 1
 C        -0.111728         0.174756        -0.162951
 C         1.336516        -0.053989         0.093123
 C         2.114799         0.841403         1.170932
 C         3.406372         0.529175         0.357894
 C         3.189210        -0.894147        -0.384877
 O         4.344278        -1.640529        -0.782114
 C         1.907531        -1.495933         0.226279
 C         2.632574         0.362403        -0.967769
 O         2.626851         1.123479        -2.117894
 H        -0.740159        -0.095051         0.801959
 H        -0.270335         1.189050        -0.488002
 H        -0.347658        -0.504616        -0.922129
 H         1.678860         1.839307         1.129615
 H         2.089518         0.615416         2.246974
 H         4.398748         0.928785         0.380046
 H         4.935289        -1.987483         0.052209
 H         1.467123        -2.080004        -0.517725
 H         2.131432        -1.929824         1.253821
 H         2.151172         0.766654        -2.839690
