19
Iteration:  3876
 C        -0.173295         0.282279        -0.128617
 C         1.314909         0.064244         0.005537
 C         1.993479         0.610776         1.295478
 C         3.327824         0.554696         0.534971
 C         3.240580        -0.841536        -0.258455
 O         4.424124        -1.509091        -0.829916
 C         1.838966        -1.381657         0.005717
 C         2.640273         0.394853        -0.877049
 O         2.866918         0.760170        -2.202336
 H        -0.554961        -0.055944         0.880494
 H        -0.462029         1.380493        -0.105021
 H        -0.572987        -0.144892        -1.084899
 H         1.613909         1.528410         1.595131
 H         1.858809        -0.024053         2.148004
 H         4.244852         0.926342         0.945974
 H         4.294975        -1.484310        -1.724309
 H         1.633343        -1.943784        -0.929288
 H         1.494911        -2.029014         0.819384
 H         2.351001         1.648171        -2.268080
