19
Iteration:  2785
 C        -0.056334         0.139730        -0.363553
 C         1.345510         0.006436         0.127071
 C         2.106951         0.661144         1.404169
 C         3.406814         0.570867         0.458942
 C         3.214837        -0.800614        -0.320244
 O         4.259682        -1.565952        -0.788888
 C         1.889833        -1.452148         0.077345
 C         2.581575         0.440563        -0.863361
 O         2.718958         0.950068        -2.155274
 H        -0.684023        -0.499122         0.258452
 H        -0.405188         1.102030        -0.412214
 H        -0.020201        -0.091326        -1.400447
 H         1.678649         1.699117         1.763068
 H         2.092785        -0.142130         2.217070
 H         4.402762         0.935626         0.672872
 H         3.983131        -1.663846        -1.655455
 H         1.482210        -2.003395        -0.833036
 H         1.796539        -2.120095         0.927560
 H         2.882330         1.875101        -1.977018
