19
Iteration:  1315
 C        -0.071879         0.155204        -0.207981
 C         1.333356        -0.021747         0.139585
 C         2.098005         0.711573         1.318328
 C         3.287631         0.593652         0.460660
 C         3.254163        -0.769466        -0.249761
 O         4.322995        -1.404405        -0.952333
 C         1.961512        -1.436456         0.047113
 C         2.548935         0.430743        -0.815896
 O         2.684243         0.684713        -2.200308
 H        -0.657126        -0.297470         0.533457
 H        -0.425366         1.213162        -0.341905
 H        -0.235697        -0.551554        -1.070612
 H         1.776315         1.714350         1.362418
 H         2.287001         0.306840         2.341805
 H         4.272135         1.036176         0.706360
 H         5.087214        -1.263789        -0.536585
 H         1.597082        -1.970317        -0.837861
 H         1.751045        -2.114230         0.923008
 H         2.225476         1.504438        -2.255738
