19
Iteration:  1929charge 0 multiplicity 1
 C        -0.085512         0.335067        -0.217440
 C         1.312302        -0.067157         0.039039
 C         1.997996         0.683283         1.186742
 C         3.322443         0.411165         0.507989
 C         3.256639        -0.894414        -0.362381
 O         4.495122        -1.428627        -0.740330
 C         1.923598        -1.567496         0.026411
 C         2.555196         0.313607        -0.862857
 O         2.604160         1.060555        -2.047047
 H        -0.562091         0.096199         0.812816
 H        -0.092903         1.344340        -0.502966
 H        -0.741425        -0.174050        -0.996042
 H         1.758650         1.731057         1.228903
 H         1.758983         0.377092         2.253099
 H         4.298503         0.787105         0.761325
 H         4.655255        -1.338575        -1.816923
 H         1.425155        -2.201241        -0.772591
 H         1.786430        -2.265152         0.904747
 H         3.468399         0.995111        -2.382846
