19
Iteration:  4116charge 0 multiplicity 1
 C        -0.113018         0.202259        -0.263452
 C         1.327457         0.054767         0.081157
 C         2.053543         0.663137         1.240149
 C         3.380360         0.504625         0.491301
 C         3.151901        -0.820891        -0.310916
 O         4.299759        -1.514217        -0.841440
 C         1.880761        -1.425546         0.135398
 C         2.588008         0.440504        -0.836087
 O         2.884037         0.798974        -2.143163
 H        -0.709076        -0.508885         0.352669
 H        -0.661897         1.073425        -0.013970
 H        -0.256207         0.058139        -1.340415
 H         1.912163         1.847425         1.611478
 H         1.888077        -0.162192         2.130465
 H         4.347925         0.931480         0.832865
 H         4.333275        -0.936453        -1.746661
 H         1.383022        -2.020441        -0.672049
 H         1.778129        -2.004422         1.076930
 H         2.560667         1.760948        -2.233251
