19
Iteration:  1206charge 0 multiplicity 1
 C        -0.058446         0.103972        -0.201683
 C         1.426407        -0.030794         0.061645
 C         2.149774         0.746355         1.240393
 C         3.343775         0.570236         0.378018
 C         3.256227        -0.870784        -0.433424
 O         4.436308        -1.593338        -0.593824
 C         1.986258        -1.445569         0.146034
 C         2.573692         0.398139        -0.917670
 O         2.332793         1.022855        -2.168698
 H        -0.642514        -0.190102         0.674140
 H        -0.421627         1.126617        -0.613390
 H        -0.215801        -0.665024        -1.090827
 H         1.890761         1.820989         1.110965
 H         1.814130         0.359544         2.202654
 H         4.440142         0.964903         0.621999
 H         4.680777        -1.409620        -1.445186
 H         1.510114        -2.102133        -0.549393
 H         2.011218        -1.778291         1.176104
 H         3.221692         1.369520        -2.465523
