19
Iteration:  4669charge 0 multiplicity 1
 C        -0.073969         0.259607        -0.394842
 C         1.317206        -0.039218         0.021346
 C         2.085126         0.690559         1.219301
 C         3.359635         0.415969         0.453087
 C         3.203784        -0.880305        -0.290968
 O         4.343340        -1.418357        -0.813554
 C         1.862702        -1.588569         0.132531
 C         2.520452         0.341417        -0.810308
 O         2.820498         1.128999        -1.962104
 H        -0.833970         0.350479         0.436034
 H         0.010881         1.180352        -0.908435
 H        -0.355273        -0.517771        -1.052269
 H         1.931839         1.834684         1.293684
 H         2.129846         0.446022         2.360327
 H         4.358131         0.756006         0.628010
 H         4.120618        -2.125655        -1.362701
 H         1.452902        -2.229805        -0.665347
 H         1.857099        -2.225374         1.022876
 H         2.150224         0.807379        -2.599368
