19
Iteration:  1119charge 0 multiplicity 1
 C        -0.079300         0.103386        -0.186984
 C         1.364903        -0.043240         0.102126
 C         2.099821         0.758079         1.292394
 C         3.359191         0.568764         0.394638
 C         3.248647        -0.790255        -0.304304
 O         4.384109        -1.464779        -0.755953
 C         1.906013        -1.439637         0.159943
 C         2.581415         0.417189        -0.916470
 O         2.629263         0.807978        -2.203943
 H        -0.650710        -0.287211         0.614960
 H        -0.396624         1.179158        -0.329301
 H        -0.434782        -0.405168        -1.158851
 H         1.911894         1.927020         1.441094
 H         1.973107         0.130475         2.189047
 H         4.444020         0.919006         0.585152
 H         4.676875        -1.211547        -1.777678
 H         1.483505        -2.011698        -0.653584
 H         1.836256        -1.955142         1.115431
 H         1.915378         1.357558        -2.465598
