19
Iteration:  3546charge 0 multiplicity 1
 C        -0.049388         0.279722        -0.248416
 C         1.398537        -0.036550         0.063138
 C         2.170616         0.623643         1.295139
 C         3.312949         0.509762         0.336222
 C         3.217220        -0.864622        -0.358680
 O         4.414657        -1.650691        -0.529761
 C         1.925768        -1.427425        -0.081927
 C         2.526085         0.367090        -0.936739
 O         2.559007         1.095329        -2.102870
 H        -0.813889        -0.095675         0.518600
 H        -0.407844         1.364830        -0.152643
 H        -0.467665        -0.170111        -1.354634
 H         1.953510         1.662284         1.510649
 H         2.200375         0.253204         2.368188
 H         4.363161         0.876588         0.443903
 H         4.191238        -2.445569        -1.227304
 H         1.378289        -1.798351        -0.989673
 H         1.723035        -2.124899         0.736887
 H         3.017623         1.971666        -1.856495
