19
Iteration:   416
 C        -0.016117         0.326423        -0.290304
 C         1.386070        -0.082403         0.165529
 C         2.190844         0.784942         1.160151
 C         3.370228         0.498604         0.287470
 C         3.184210        -0.923428        -0.326333
 O         4.324723        -1.605522        -0.720651
 C         2.003352        -1.587080         0.222526
 C         2.575230         0.290571        -0.969643
 O         2.417776         1.189897        -2.071169
 H        -0.585681         0.698434         0.637357
 H         0.045344         1.172905        -0.943746
 H        -0.562395        -0.495000        -0.735213
 H         1.869035         1.855343         1.041087
 H         2.223832         0.521213         2.144522
 H         4.375423         0.918424         0.522129
 H         4.985920        -1.882303         0.064906
 H         1.555492        -2.180485        -0.619378
 H         1.966447        -2.320177         1.117642
 H         2.645504         0.703323        -2.857684
