19
Iteration:  3268
 C        -0.066774         0.341830        -0.175179
 C         1.335734        -0.047775         0.023648
 C         1.978490         0.708128         1.237052
 C         3.238625         0.510917         0.494914
 C         3.201829        -0.849211        -0.392976
 O         4.334936        -1.553413        -0.817542
 C         1.962748        -1.564840         0.081849
 C         2.561409         0.361173        -0.848001
 O         2.835021         0.894501        -2.102302
 H        -0.689719         0.176842         0.706273
 H        -0.152083         1.440893        -0.202285
 H        -0.655357        -0.167523        -1.098102
 H         1.674091         1.731249         1.138742
 H         2.010837         0.131927         2.259076
 H         4.176664         1.145995         0.558509
 H         5.090117        -0.906402        -1.181828
 H         1.564631        -2.185451        -0.703398
 H         2.014092        -2.100130         1.020369
 H         2.441100         1.767758        -2.142053
