19
Iteration:  3866charge 0 multiplicity 1
 C        -0.174053         0.286352        -0.195053
 C         1.278647         0.033653         0.048574
 C         2.078152         0.643132         1.314508
 C         3.296389         0.559081         0.501309
 C         3.231046        -0.832942        -0.340422
 O         4.367082        -1.474031        -0.811695
 C         1.847187        -1.445240        -0.000525
 C         2.674785         0.399579        -0.830296
 O         2.864255         0.769809        -2.127744
 H        -0.783028        -0.076892         0.545240
 H        -0.361314         1.391262        -0.382633
 H        -0.701295        -0.371040        -0.920560
 H         1.776686         1.664779         1.681688
 H         2.022218        -0.087549         2.163113
 H         4.258514         0.963549         0.710494
 H         4.278860        -1.595521        -1.747572
 H         1.502713        -2.050336        -0.857525
 H         1.720606        -1.967330         0.967954
 H         2.546682         1.698121        -2.408907
