19
Iteration:   612charge 0 multiplicity 1
 C         0.038827         0.359803        -0.288379
 C         1.358345        -0.043648         0.119378
 C         2.156917         0.714267         1.273376
 C         3.328881         0.532128         0.370994
 C         3.206466        -0.867349        -0.386441
 O         4.400782        -1.571981        -0.809993
 C         1.927479        -1.528557         0.207754
 C         2.559872         0.401225        -0.888414
 O         2.439164         0.971817        -2.119864
 H        -0.823325         0.438467         0.522483
 H         0.259462         1.243020        -0.856180
 H        -0.280206        -0.334119        -1.028905
 H         1.835240         1.859059         1.152581
 H         2.030172         0.344299         2.336300
 H         4.389074         0.767972         0.557026
 H         5.108107        -1.653977        -0.073804
 H         1.396191        -2.233614        -0.359145
 H         2.129136        -2.030986         1.259242
 H         2.322820         0.419753        -2.840032
