19
Iteration:   779charge 0 multiplicity 1
 C        -0.071780         0.310828        -0.288134
 C         1.342124        -0.033311         0.078880
 C         2.194770         0.658788         1.306319
 C         3.435306         0.649904         0.368635
 C         3.250966        -0.848754        -0.263285
 O         4.375819        -1.405833        -0.888418
 C         1.830548        -1.463100         0.154651
 C         2.562213         0.332336        -0.849287
 O         2.506705         0.819365        -2.088291
 H        -0.837195        -0.013295         0.391938
 H        -0.129748         1.382613        -0.594535
 H        -0.494542        -0.341144        -1.170998
 H         1.694985         1.711980         1.534512
 H         2.244847         0.134457         2.244737
 H         4.517957         1.067619         0.533091
 H         4.859582        -1.975654        -0.450063
 H         1.565313        -2.095754        -0.670691
 H         1.801588        -1.922327         1.200524
 H         2.856962         0.191363        -2.790998
