19
Iteration:  1847charge 0 multiplicity 1
 C        -0.079990         0.236659        -0.355478
 C         1.325707         0.011394         0.027523
 C         2.131339         0.673234         1.272194
 C         3.315370         0.412191         0.384275
 C         3.193630        -0.930458        -0.348486
 O         4.455413        -1.429421        -0.740672
 C         1.875854        -1.572668         0.127378
 C         2.567703         0.334687        -0.862906
 O         2.604957         1.107770        -2.014338
 H        -0.735508        -0.451476         0.185237
 H        -0.460465         1.299289        -0.089259
 H        -0.160437        -0.012476        -1.389307
 H         1.878458         1.741311         1.135294
 H         2.078595         0.278573         2.224716
 H         4.432548         0.823596         0.469643
 H         4.339708        -2.317020        -1.349556
 H         1.321197        -2.098296        -0.574496
 H         1.864685        -1.917608         1.110872
 H         3.254361         1.853206        -1.877506
