19
Iteration:   879
 C        -0.140810         0.107356        -0.090589
 C         1.344526        -0.044155         0.098424
 C         2.126420         0.778502         1.115826
 C         3.420306         0.589682         0.293221
 C         3.180983        -0.821125        -0.398258
 O         4.326855        -1.734344        -0.609142
 C         1.987441        -1.496936         0.115356
 C         2.567344         0.408641        -0.971214
 O         2.569329         1.120025        -2.168651
 H        -0.536381        -0.414883         0.731900
 H        -0.683000         1.124966        -0.042841
 H        -0.541743        -0.436483        -1.072050
 H         1.772811         1.838356         1.296154
 H         2.204085         0.391531         2.073333
 H         4.464766         0.676390         0.287558
 H         5.075737        -1.297594        -0.518311
 H         1.338319        -2.093405        -0.576396
 H         2.143449        -1.873800         1.151372
 H         3.315260         1.676470        -2.149470
