19
Iteration:  3911
 C        -0.170883         0.311480        -0.114090
 C         1.319108        -0.016061         0.026766
 C         2.058000         0.693022         1.261386
 C         3.351797         0.524867         0.463943
 C         3.182436        -0.825350        -0.375229
 O         4.391954        -1.454057        -0.681970
 C         1.856186        -1.513906        -0.053492
 C         2.552381         0.351622        -0.876327
 O         2.823736         0.801883        -2.147279
 H        -0.835961        -0.362616         0.523892
 H        -0.264035         1.440765         0.175657
 H        -0.618948         0.150039        -1.132138
 H         1.779998         1.768671         1.219063
 H         2.277263         0.251306         2.239589
 H         4.366876         0.618188         0.840847
 H         4.567572        -1.422506        -1.632617
 H         1.519449        -1.954735        -0.998843
 H         1.826895        -2.170548         0.832526
 H         2.880479         1.829691        -2.097948
