19
Iteration:  1900charge 0 multiplicity 1
 C        -0.081107         0.304455        -0.252617
 C         1.326718        -0.077468        -0.025292
 C         2.022268         0.603933         1.276379
 C         3.370330         0.605822         0.505682
 C         3.323276        -0.818328        -0.243478
 O         4.415744        -1.557305        -0.722454
 C         1.944618        -1.506372        -0.113251
 C         2.613202         0.404431        -0.805077
 O         2.497068         0.959747        -2.075097
 H        -0.538429         0.128736         0.647664
 H        -0.031955         1.517764        -0.440587
 H        -0.710435        -0.177361        -0.983227
 H         1.548415         1.608852         1.636677
 H         1.975424        -0.043966         2.219396
 H         4.416324         1.082232         0.873614
 H         4.468910        -1.605597        -1.764031
 H         1.627339        -1.964489        -1.121212
 H         1.706708        -2.186080         0.734434
 H         3.432713         1.030869        -2.447729
