19
Iteration:    83
 C        -0.070649         0.292179        -0.277361
 C         1.382491        -0.014675         0.158451
 C         2.134379         0.795455         1.202194
 C         3.386735         0.545889         0.373496
 C         3.199189        -0.932894        -0.397645
 O         4.349081        -1.587974        -0.745630
 C         1.992464        -1.490019         0.214454
 C         2.582646         0.357634        -0.903024
 O         2.552756         0.925803        -2.180939
 H        -0.781261        -0.512926         0.074616
 H        -0.365514         1.229439         0.238121
 H        -0.193895         0.480552        -1.433423
 H         1.816454         1.920609         0.994097
 H         1.951574         0.483806         2.306986
 H         4.438922         0.644459         0.412952
 H         4.887125        -1.472922        -0.017471
 H         1.419552        -2.184455        -0.410969
 H         2.164897        -1.881239         1.253102
 H         1.683357         1.267202        -2.351342
