19
Iteration:  4189charge 0 multiplicity 1
 C        -0.083535         0.231016        -0.357645
 C         1.331422         0.006211        -0.014389
 C         2.140181         0.644909         1.175118
 C         3.408668         0.408968         0.411938
 C         3.258212        -0.896107        -0.287304
 O         4.381495        -1.615651        -0.627258
 C         1.882500        -1.486106         0.155664
 C         2.619464         0.409244        -0.880764
 O         2.519037         1.157943        -2.066037
 H        -0.787625         0.298008         0.450036
 H        -0.193164         1.326485        -0.804278
 H        -0.494948        -0.532142        -1.117912
 H         2.042167         1.666530         1.270831
 H         2.150014         0.060754         2.056148
 H         4.457027         0.771354         0.634156
 H         4.411180        -1.993791        -1.606464
 H         1.496334        -2.121574        -0.649442
 H         1.732322        -2.048065         1.079194
 H         2.828499         2.106913        -1.947170
