19
Iteration:  4598
 C        -0.117528         0.285320        -0.212212
 C         1.356233        -0.051891         0.040791
 C         2.070955         0.628394         1.206797
 C         3.314241         0.511039         0.435677
 C         3.249129        -0.832454        -0.297990
 O         4.335953        -1.667842        -0.716092
 C         1.916146        -1.486863        -0.000481
 C         2.557223         0.387542        -0.917482
 O         2.705207         1.152569        -2.054907
 H        -0.754426        -0.123585         0.557444
 H        -0.087435         1.392744        -0.396838
 H        -0.486925        -0.212380        -1.140973
 H         1.694237         1.641364         1.436073
 H         1.937388         0.105224         2.217386
 H         4.260598         1.045922         0.569259
 H         5.110039        -1.147560        -0.409631
 H         1.676360        -2.133134        -0.890286
 H         1.594733        -2.116423         0.868682
 H         2.973477         0.530925        -2.837993
