19
Iteration:  2420charge 0 multiplicity 1
 C        -0.084083         0.217826        -0.404122
 C         1.289972        -0.061046         0.074202
 C         2.193790         0.599342         1.263676
 C         3.339634         0.522284         0.401524
 C         3.282444        -0.854879        -0.259143
 O         4.399254        -1.583443        -0.685125
 C         1.857838        -1.503138         0.010208
 C         2.509682         0.425468        -0.809641
 O         2.617863         1.091958        -2.045812
 H        -0.773963        -0.552503         0.177427
 H        -0.457514         1.260753         0.039668
 H        -0.277421         0.258237        -1.532589
 H         1.770027         1.615329         1.489981
 H         2.263825         0.066148         2.173266
 H         4.268633         1.179635         0.308445
 H         4.345239        -1.608815        -1.637418
 H         1.435601        -2.011634        -0.844305
 H         1.775785        -2.107020         0.902668
 H         3.438551         1.640171        -1.997361
