19
Iteration:  2425
 C        -0.085545         0.221049        -0.395695
 C         1.330341        -0.073951         0.048942
 C         2.154631         0.613340         1.288381
 C         3.361219         0.595352         0.395410
 C         3.252052        -0.815465        -0.224695
 O         4.359437        -1.624930        -0.723229
 C         1.910048        -1.495841         0.028999
 C         2.519430         0.432241        -0.803349
 O         2.606119         1.082546        -2.055026
 H        -0.773452        -0.513327         0.086291
 H        -0.420348         1.122301        -0.021310
 H        -0.238719         0.204091        -1.481150
 H         1.777671         1.612481         1.420353
 H         2.153493        -0.127905         2.164191
 H         4.302647         1.158132         0.537368
 H         4.443376        -1.719089        -1.786153
 H         1.522114        -2.030513        -0.907905
 H         1.726476        -2.201202         0.895073
 H         3.483604         1.483831        -1.806182
