19
Iteration:  2427charge 0 multiplicity 1
 C        -0.090402         0.213063        -0.388743
 C         1.344916        -0.073564         0.040638
 C         2.133063         0.612190         1.298277
 C         3.373839         0.619353         0.396707
 C         3.246595        -0.813141        -0.226564
 O         4.346769        -1.633982        -0.733490
 C         1.924569        -1.496726         0.033653
 C         2.524980         0.430619        -0.807984
 O         2.603630         1.078012        -2.053972
 H        -0.741451        -0.469472         0.009391
 H        -0.430270         1.169568        -0.023628
 H        -0.207288         0.175263        -1.428247
 H         1.772812         1.635708         1.431878
 H         2.120882        -0.130200         2.155183
 H         4.269453         1.098276         0.610845
 H         4.433502        -1.727635        -1.795000
 H         1.594492        -2.001517        -0.876078
 H         1.719722        -2.199851         0.876187
 H         3.502267         1.474732        -1.809059
