19
Iteration:  2605charge 0 multiplicity 1
 C        -0.108730         0.272209        -0.331494
 C         1.274679        -0.036799         0.003230
 C         2.074092         0.605569         1.219669
 C         3.386666         0.405005         0.431195
 C         3.238490        -0.873292        -0.362812
 O         4.387708        -1.499618        -0.741422
 C         1.894976        -1.480122         0.227942
 C         2.594486         0.355291        -0.905081
 O         2.691493         1.157530        -2.018314
 H        -0.743156        -0.414589         0.109422
 H        -0.352806         1.305771         0.058387
 H        -0.330943         0.274318        -1.401295
 H         1.771455         1.639320         1.561642
 H         1.927267         0.032169         2.202923
 H         4.336575         0.966661         0.506587
 H         4.465036        -1.830318        -1.643699
 H         1.363332        -2.217253        -0.397764
 H         1.940375        -1.813810         1.317247
 H         2.838668         0.594321        -2.847365
