19
Iteration:  4523charge 0 multiplicity 1
 C        -0.159095         0.238116        -0.295540
 C         1.311303        -0.026506         0.064276
 C         2.021065         0.699736         1.267797
 C         3.362412         0.642167         0.462484
 C         3.268149        -0.859479        -0.266778
 O         4.352886        -1.539529        -0.865257
 C         1.919712        -1.414397         0.043022
 C         2.594666         0.323020        -0.872879
 O         2.767007         0.982066        -1.978883
 H        -0.689789        -0.582981         0.010271
 H        -0.511769         1.202978        -0.001410
 H        -0.211777         0.188187        -1.387093
 H         1.687245         1.734257         1.285677
 H         2.100762         0.054006         2.259186
 H         4.357580         0.984057         0.752656
 H         4.159220        -2.465624        -0.991134
 H         1.538132        -2.033345        -0.766458
 H         1.972383        -1.959748         1.006963
 H         2.602168         0.605742        -2.789553
