19
Iteration:  3271charge 0 multiplicity 1
 C        -0.079575         0.339214        -0.195512
 C         1.323765        -0.053989         0.001066
 C         1.967678         0.718317         1.270903
 C         3.277494         0.488180         0.504230
 C         3.199473        -0.854356        -0.410404
 O         4.328938        -1.530873        -0.819124
 C         1.977952        -1.571573         0.114537
 C         2.577928         0.329452        -0.880992
 O         2.826599         0.915707        -2.103114
 H        -0.591007         0.179116         0.697469
 H        -0.216053         1.416695        -0.308564
 H        -0.595695        -0.051842        -0.989340
 H         1.673326         1.805905         1.102945
 H         1.976948         0.111778         2.209014
 H         4.176183         1.129161         0.608375
 H         4.966232        -0.982678        -1.118069
 H         1.471864        -2.234658        -0.585380
 H         2.026015        -2.121529         1.085837
 H         2.426384         1.863075        -2.100727
