19
Iteration:  2253
 C        -0.076308         0.258609        -0.300204
 C         1.381487        -0.109189         0.033281
 C         2.045352         0.600479         1.273686
 C         3.316457         0.513917         0.409260
 C         3.228785        -0.846735        -0.365791
 O         4.307839        -1.615191        -0.718286
 C         1.969575        -1.561619         0.106162
 C         2.574235         0.387344        -0.902296
 O         2.615493         1.183091        -2.103269
 H        -0.722206        -0.263906         0.375656
 H        -0.303429         1.388688        -0.267815
 H        -0.368259        -0.016286        -1.316217
 H         1.592105         1.572985         1.531034
 H         2.023678         0.082395         2.179742
 H         4.370181         1.002260         0.420990
 H         5.322223        -1.383500        -0.703469
 H         1.673344        -2.151578        -0.726772
 H         1.893776        -2.045993         1.091530
 H         3.196588         1.840537        -1.797102
