19
Iteration:  2350charge 0 multiplicity 1
 C        -0.187268         0.294669        -0.241510
 C         1.326765        -0.097831         0.048851
 C         2.047321         0.607594         1.299144
 C         3.318699         0.582928         0.457209
 C         3.284114        -0.829406        -0.268744
 O         4.394288        -1.590867        -0.766817
 C         1.937178        -1.510365        -0.053009
 C         2.577169         0.404393        -0.917963
 O         2.801986         1.038904        -2.029891
 H        -0.778849         0.213289         0.613400
 H        -0.342562         1.392941        -0.724828
 H        -0.612341        -0.322663        -1.020080
 H         1.593876         1.511036         1.784471
 H         2.241500        -0.050164         2.266743
 H         4.190378         1.201244         0.809960
 H         4.153367        -1.984974        -1.551108
 H         1.611320        -1.747122        -1.065223
 H         1.873014        -2.256493         0.744422
 H         2.031653         1.478576        -2.297297
