19
Iteration:  2181
 C        -0.096262         0.318612        -0.237875
 C         1.309218        -0.101435         0.027865
 C         2.011064         0.659701         1.235459
 C         3.348749         0.499416         0.472880
 C         3.245030        -0.851358        -0.367283
 O         4.377917        -1.677975        -0.796625
 C         1.944578        -1.545022         0.022400
 C         2.596512         0.391223        -0.892630
 O         2.704702         1.175050        -2.008485
 H        -0.813880        -0.304478         0.447241
 H        -0.205932         1.397627        -0.072634
 H        -0.453508         0.162505        -1.304608
 H         1.754845         1.708475         1.430725
 H         1.808413         0.246673         2.298667
 H         4.261867         1.005508         0.640529
 H         5.210069        -1.124889        -0.577299
 H         1.598917        -2.182263        -0.841686
 H         1.967912        -2.174343         0.943778
 H         1.982414         0.885832        -2.518240
