19
Iteration:  3995charge 0 multiplicity 1
 C        -0.045160         0.177798        -0.402904
 C         1.347535         0.017083         0.088733
 C         2.080437         0.760657         1.253163
 C         3.397723         0.495870         0.365920
 C         3.268276        -0.932766        -0.244808
 O         4.371161        -1.648211        -0.724506
 C         1.870804        -1.453411         0.082809
 C         2.626705         0.351496        -0.879806
 O         2.571597         1.104683        -2.013641
 H        -0.731835         0.203486         0.441417
 H        -0.185206         1.152717        -0.754560
 H        -0.230728        -0.396433        -1.290072
 H         1.830734         1.857221         1.344639
 H         2.163174         0.471644         2.341141
 H         4.446762         0.736258         0.447075
 H         4.089262        -2.133321        -1.471025
 H         1.637351        -2.001594        -0.853030
 H         1.775869        -2.151421         0.918938
 H         2.302386         1.983352        -1.768276
