19
Iteration:  3001
 C        -0.109973         0.156484        -0.262976
 C         1.378890         0.095012        -0.008935
 C         2.042202         0.660761         1.307738
 C         3.358918         0.583500         0.516142
 C         3.274760        -0.819243        -0.277352
 O         4.285424        -1.655958        -0.809921
 C         1.891380        -1.337806         0.027419
 C         2.692402         0.466904        -0.829232
 O         2.656465         0.860686        -2.139916
 H        -0.400230        -0.536058         0.430743
 H        -0.665978         1.055905         0.064926
 H        -0.535023        -0.215955        -1.219763
 H         1.706013         1.626171         1.667715
 H         1.786333        -0.011625         2.271151
 H         4.373827         0.794843         0.816039
 H         4.480034        -1.412093        -1.646959
 H         1.668308        -2.006664        -0.833374
 H         1.773219        -1.890804         0.950255
 H         3.136434         1.680201        -2.283000
