19
Iteration:  1598charge 0 multiplicity 1
 C        -0.149976         0.194684        -0.146950
 C         1.308461        -0.070057         0.056150
 C         2.084698         0.720361         1.137486
 C         3.297772         0.463896         0.407616
 C         3.252366        -0.900479        -0.394228
 O         4.425610        -1.427152        -0.777213
 C         1.906260        -1.545087         0.149074
 C         2.514666         0.287633        -0.982183
 O         2.763034         1.111613        -2.084087
 H        -0.888048        -0.602473         0.415077
 H        -0.323137         1.184891         0.168693
 H        -0.445790         0.048308        -1.170506
 H         1.712368         1.723504         1.108717
 H         2.099945         0.314892         2.229416
 H         4.310532         0.975019         0.369663
 H         4.559868        -2.237291        -0.459506
 H         1.465273        -2.327175        -0.452885
 H         1.847748        -1.836674         1.225381
 H         2.812960         2.026960        -1.692265
