19
Iteration:  3254charge 0 multiplicity 1
 C        -0.125530         0.323281        -0.123644
 C         1.268671        -0.105776         0.096365
 C         2.002046         0.645947         1.258718
 C         3.350774         0.623488         0.409873
 C         3.271655        -0.819152        -0.254525
 O         4.353058        -1.581648        -0.805050
 C         1.910525        -1.470520        -0.049828
 C         2.554942         0.420112        -0.861624
 O         2.832776         0.824089        -2.110021
 H        -0.815277        -0.099424         0.742209
 H        -0.192248         1.436213        -0.313324
 H        -0.471286        -0.068110        -1.210469
 H         1.613888         1.657459         1.268400
 H         1.897191         0.178401         2.253834
 H         4.301838         1.030440         0.665252
 H         4.901763        -0.975558        -1.192769
 H         1.541103        -1.990113        -0.989241
 H         1.709802        -2.188455         0.764710
 H         2.485098         1.747456        -2.352898
