19
Iteration:  3875
 C        -0.170473         0.284297        -0.140273
 C         1.307362         0.065119         0.010302
 C         2.007685         0.616526         1.299326
 C         3.318532         0.555268         0.531305
 C         3.235857        -0.838882        -0.267957
 O         4.423027        -1.507828        -0.828466
 C         1.840364        -1.383218         0.006106
 C         2.647072         0.390161        -0.872067
 O         2.866804         0.760588        -2.196309
 H        -0.595073        -0.078405         0.924914
 H        -0.445490         1.367585        -0.124958
 H        -0.594858        -0.168132        -1.081589
 H         1.622645         1.483689         1.627867
 H         1.850994         0.005797         2.136881
 H         4.243375         0.939543         0.953032
 H         4.290291        -1.499841        -1.769892
 H         1.650616        -1.969817        -0.922441
 H         1.490652        -2.020536         0.824247
 H         2.364236         1.647952        -2.280197
