19
Iteration:  1918charge 0 multiplicity 1
 C        -0.103890         0.392905        -0.182171
 C         1.348288        -0.111971         0.006192
 C         1.962037         0.650015         1.197318
 C         3.313642         0.479515         0.482827
 C         3.287648        -0.889663        -0.291919
 O         4.451864        -1.478674        -0.748695
 C         1.942051        -1.579713        -0.020469
 C         2.657008         0.359879        -0.835531
 O         2.552493         1.015804        -2.033867
 H        -0.785216         0.324466         0.780579
 H        -0.222672         1.399974        -0.364469
 H        -0.527899        -0.311463        -0.983066
 H         1.713780         1.667365         0.971824
 H         1.811171         0.254437         2.257132
 H         4.160961         0.992114         0.801984
 H         4.651385        -1.305081        -1.730913
 H         1.722830        -1.894403        -1.087567
 H         1.845085        -2.293026         0.850429
 H         3.413276         0.986616        -2.544507
