19
Iteration:    64
 C        -0.003669         0.296987        -0.329194
 C         1.372258        -0.029253         0.099801
 C         2.188194         0.834681         1.199120
 C         3.414487         0.565213         0.324990
 C         3.310592        -0.916855        -0.273435
 O         4.404730        -1.649232        -0.698917
 C         1.899391        -1.477450         0.189290
 C         2.550376         0.290111        -0.947845
 O         2.385040         0.963246        -2.129850
 H        -0.781148        -0.595487        -0.143653
 H        -0.421304         1.236871         0.064369
 H         0.066382         0.398196        -1.334045
 H         1.839257         1.827014         1.186411
 H         2.351303         0.368285         2.165358
 H         4.293247         1.199164         0.324813
 H         4.896044        -1.853087        -0.005202
 H         1.558841        -2.030749        -0.650047
 H         1.725344        -2.047728         1.155373
 H         1.790062         1.732530        -1.964156
