19
Iteration:  2598charge 0 multiplicity 1
 C        -0.115873         0.275375        -0.336463
 C         1.292173        -0.044634         0.056261
 C         2.104472         0.603798         1.202429
 C         3.363530         0.428286         0.406171
 C         3.198066        -0.885401        -0.389527
 O         4.402572        -1.495872        -0.694837
 C         1.888765        -1.502914         0.217607
 C         2.588427         0.408049        -0.890986
 O         2.709443         1.147908        -2.015586
 H        -0.787642        -0.480432         0.154783
 H        -0.360553         1.240063        -0.027133
 H        -0.316797         0.251677        -1.443293
 H         1.907492         1.725226         1.403838
 H         2.047296         0.010382         2.142601
 H         4.321660         0.829430         0.509765
 H         4.354985        -1.736335        -1.734149
 H         1.426189        -2.147145        -0.561520
 H         1.890809        -1.982712         1.170265
 H         2.629710         0.506221        -2.727405
