19
Iteration:   491charge 0 multiplicity 1
 C        -0.139553         0.214044        -0.111424
 C         1.369009         0.026286         0.118421
 C         2.147859         0.772803         1.251889
 C         3.355259         0.629659         0.295823
 C         3.192937        -0.842835        -0.290881
 O         4.258206        -1.556674        -0.884493
 C         1.913006        -1.499659         0.161055
 C         2.519365         0.324016        -0.906268
 O         2.804034         0.926849        -2.135594
 H        -0.744785        -0.466948         0.595275
 H        -0.478233         1.236265        -0.040106
 H        -0.290005        -0.098371        -1.086797
 H         1.879681         1.919640         1.157108
 H         2.152715         0.325896         2.287249
 H         4.370021         1.087204         0.359234
 H         5.010389        -1.700239        -0.079580
 H         1.412250        -1.970028        -0.584064
 H         1.951339        -2.215432         0.994418
 H         2.183243         0.500138        -2.815818
