19
Iteration:  4323charge 0 multiplicity 1
 C        -0.153495         0.142293        -0.333418
 C         1.337934         0.004441         0.009341
 C         2.069725         0.719180         1.282304
 C         3.391571         0.502591         0.504134
 C         3.246386        -0.828568        -0.273302
 O         4.233956        -1.583628        -0.926722
 C         1.929067        -1.381032         0.144331
 C         2.622812         0.418985        -0.781996
 O         2.797029         0.843684        -2.077269
 H        -0.770254        -0.586773         0.284713
 H        -0.441102         1.233034         0.133478
 H        -0.259007         0.213638        -1.464850
 H         1.755341         1.736905         1.666060
 H         1.699461         0.212414         2.225468
 H         4.284573         1.087085         0.637996
 H         4.793401        -0.955874        -1.595526
 H         1.290069        -2.019109        -0.548876
 H         1.751077        -1.823280         1.128524
 H         2.812988         1.821193        -2.326121
