19
Iteration:  4875
 C        -0.195281         0.373205        -0.186705
 C         1.242313        -0.085754         0.087489
 C         2.035702         0.686594         1.300017
 C         3.286289         0.476744         0.494612
 C         3.212482        -0.883959        -0.382980
 O         4.388326        -1.479843        -0.725099
 C         1.908603        -1.542753        -0.044913
 C         2.632675         0.371119        -0.840379
 O         2.865116         0.937828        -2.155814
 H        -0.822853         0.162189         0.715155
 H        -0.304839         1.463144        -0.609827
 H        -0.680867        -0.338991        -1.025072
 H         1.707905         1.672303         1.459350
 H         2.090398         0.197083         2.264881
 H         4.325733         0.866782         0.603243
 H         4.311476        -1.470527        -1.654692
 H         1.538928        -2.192380        -0.824751
 H         1.785111        -2.198194         0.818996
 H         3.262051         1.793045        -2.079487
