19
Iteration:  2367charge 0 multiplicity 1
 C        -0.104300         0.316769        -0.204198
 C         1.301643        -0.053633        -0.020605
 C         2.017939         0.548362         1.209801
 C         3.315778         0.453168         0.471526
 C         3.304208        -0.871122        -0.328562
 O         4.422715        -1.500917        -0.725122
 C         1.919307        -1.527268        -0.010117
 C         2.599195         0.416663        -0.835227
 O         2.740884         1.084469        -2.074354
 H        -0.718643         0.043343         0.742106
 H        -0.155279         1.391056        -0.308266
 H        -0.577338        -0.082142        -1.149753
 H         1.723236         1.602227         1.290651
 H         1.677611         0.209483         2.179689
 H         4.340996         0.907375         0.520487
 H         4.177846        -2.211103        -1.194357
 H         1.675097        -2.165585        -0.917962
 H         1.769322        -2.058768         0.966105
 H         1.973854         1.663053        -2.031424
