19
Iteration:  2214
 C        -0.083473         0.145639        -0.304053
 C         1.338153         0.066358         0.032203
 C         2.151685         0.675679         1.274320
 C         3.419510         0.461708         0.476637
 C         3.276539        -0.834668        -0.361536
 O         4.344967        -1.702144        -0.615279
 C         1.855331        -1.459621        -0.114342
 C         2.650337         0.410069        -0.886185
 O         2.557660         1.145958        -2.058456
 H        -0.588016        -0.677081         0.368339
 H        -0.552487         1.085829        -0.008181
 H        -0.262212        -0.105324        -1.392256
 H         2.026030         1.769458         1.464534
 H         2.133076        -0.052278         2.190527
 H         4.396425         0.742406         0.408355
 H         5.026567        -1.185774        -0.421610
 H         1.523557        -1.772240        -1.156235
 H         1.563070        -2.211504         0.661799
 H         1.732782         1.752166        -2.040937
