19
Iteration:  1227
 C        -0.132079        -0.014264        -0.212369
 C         1.376887        -0.008697         0.028187
 C         2.161404         0.819385         1.177320
 C         3.429117         0.595424         0.290878
 C         3.304512        -0.885199        -0.313529
 O         4.465715        -1.612852        -0.553499
 C         1.954864        -1.403450         0.129834
 C         2.550611         0.364227        -0.920751
 O         2.365120         1.114340        -2.128342
 H        -0.648787        -0.483129         0.649290
 H        -0.617460         1.003110        -0.339142
 H        -0.367568        -0.673023        -1.133251
 H         1.820367         1.806847         1.346358
 H         2.327943         0.252678         2.117899
 H         4.566918         0.926846         0.216227
 H         4.089904        -2.070592        -1.463598
 H         1.509495        -1.930167        -0.705014
 H         1.867384        -2.038282         1.038931
 H         3.146488         1.608924        -2.269760
