19
Iteration:  1748
 C        -0.207386         0.248142        -0.188110
 C         1.310502        -0.040302         0.091288
 C         2.092896         0.562484         1.266645
 C         3.358146         0.518306         0.440808
 C         3.247898        -0.841098        -0.276581
 O         4.359587        -1.406418        -0.861802
 C         1.888898        -1.468573        -0.052929
 C         2.600290         0.392463        -0.840035
 O         2.735347         0.872207        -2.137570
 H        -0.783599         0.021796         0.708838
 H        -0.451790         1.379107        -0.440179
 H        -0.589242        -0.257801        -1.076446
 H         1.818522         1.655367         1.389919
 H         2.116745         0.034498         2.206782
 H         4.343472         1.013189         0.867267
 H         5.092078        -1.489668        -0.050798
 H         1.457067        -1.963664        -0.922458
 H         1.698866        -2.120670         0.812282
 H         3.019589         1.841705        -2.113225
