19
Iteration:  4242
 C        -0.107540         0.366778        -0.155045
 C         1.309534        -0.057284         0.021140
 C         2.027130         0.614898         1.225306
 C         3.381311         0.496755         0.495414
 C         3.261621        -0.866330        -0.328795
 O         4.379230        -1.488904        -0.676186
 C         1.891488        -1.531490        -0.017217
 C         2.618994         0.395107        -0.920286
 O         2.714907         0.992038        -2.161750
 H        -0.659155         0.217454         0.708652
 H        -0.223778         1.393337        -0.527215
 H        -0.617707        -0.361899        -0.805805
 H         1.689522         1.666479         1.173868
 H         1.855845        -0.017071         2.181927
 H         4.486176         0.781783         0.578925
 H         4.271072        -2.493570        -1.099054
 H         1.497768        -2.142897        -0.828413
 H         1.819364        -2.082182         0.919330
 H         2.527379         1.999427        -2.046086
