19
Iteration:  4435
 C        -0.093474         0.314737        -0.225381
 C         1.315921        -0.031974         0.036922
 C         2.097608         0.656067         1.159848
 C         3.367477         0.519309         0.393282
 C         3.245364        -0.918331        -0.315109
 O         4.413293        -1.582988        -0.574649
 C         1.952557        -1.550516        -0.028851
 C         2.602874         0.421688        -0.903256
 O         2.543070         1.095582        -2.033338
 H        -0.626934         0.450417         0.734500
 H        -0.177019         1.294499        -0.818308
 H        -0.791081        -0.414532        -0.711858
 H         1.759290         1.616107         1.402279
 H         1.912093         0.183694         2.134858
 H         4.332658         0.963322         0.577382
 H         4.332214        -1.923455        -1.399191
 H         1.655239        -2.002964        -0.958611
 H         1.847208        -2.416776         0.643022
 H         3.329172         1.149219        -2.578308
