19
Iteration:  3691charge 0 multiplicity 1
 C        -0.153518         0.313694        -0.189292
 C         1.257772        -0.015548         0.043661
 C         2.037491         0.691277         1.260246
 C         3.312357         0.528874         0.491938
 C         3.235732        -0.890549        -0.259931
 O         4.328503        -1.489228        -0.886072
 C         1.945013        -1.514529         0.013916
 C         2.544973         0.385478        -0.767700
 O         2.909470         0.826667        -2.110250
 H        -0.701415         0.091985         0.604085
 H        -0.470454         1.373949        -0.362658
 H        -0.431189        -0.228743        -1.128406
 H         1.860498         1.778321         1.477210
 H         2.042936         0.187136         2.272275
 H         4.308424         1.015387         0.652831
 H         4.494235        -1.042546        -1.848676
 H         1.540719        -2.085929        -0.825847
 H         1.711410        -2.158449         0.838681
 H         2.423765         1.703471        -2.154235
