19
Iteration:  2637
 C        -0.119138         0.249508        -0.314579
 C         1.367701        -0.077088         0.077006
 C         2.011006         0.744506         1.187656
 C         3.393091         0.500282         0.478674
 C         3.225305        -0.852246        -0.319523
 O         4.369598        -1.573409        -0.826574
 C         1.949504        -1.534795         0.092398
 C         2.565380         0.405874        -0.767994
 O         2.652274         1.084249        -2.025112
 H        -0.890580        -0.304542         0.226743
 H        -0.358043         1.338075         0.035429
 H        -0.242427         0.103388        -1.399930
 H         1.808195         1.779113         1.080176
 H         1.962819         0.304152         2.181263
 H         4.312397         1.007541         0.761860
 H         4.172209        -2.347837        -1.462992
 H         1.513513        -2.049201        -0.761257
 H         1.900800        -2.254376         0.975916
 H         3.491810         1.052430        -2.510768
