19
Iteration:   217
 C         0.028458         0.385888        -0.326849
 C         1.465619        -0.048819         0.165639
 C         2.160869         0.789982         1.225637
 C         3.328385         0.473176         0.323296
 C         3.231483        -0.947798        -0.320014
 O         4.346363        -1.578035        -0.771353
 C         1.949303        -1.570580         0.172797
 C         2.600722         0.327476        -0.921012
 O         2.338687         1.031736        -2.116386
 H        -0.710529         0.667151         0.586030
 H         0.056352         1.239081        -1.050115
 H        -0.445596        -0.402454        -0.803018
 H         1.579604         1.832671         1.191209
 H         2.121574         0.404064         2.379187
 H         4.381437         0.787524         0.647863
 H         5.072826        -1.694514         0.012484
 H         1.293905        -2.022295        -0.507418
 H         2.089207        -2.076222         1.203394
 H         3.145771         1.119094        -2.600751
