19
Iteration:  3673
 C        -0.189318         0.208205        -0.275782
 C         1.306688         0.006588         0.105258
 C         2.048300         0.624550         1.330235
 C         3.408248         0.470535         0.585736
 C         3.225161        -0.815044        -0.251664
 O         4.271029        -1.422488        -0.962459
 C         1.826436        -1.417614         0.098075
 C         2.653667         0.427348        -0.854488
 O         2.887480         0.759440        -2.141888
 H        -0.984311         0.112415         0.721557
 H        -0.400801         1.287920        -0.574091
 H        -0.529659        -0.332029        -1.118832
 H         1.770873         1.667229         1.265635
 H         1.918448         0.018547         2.191907
 H         4.437410         0.870566         0.820244
 H         4.620719        -0.802960        -1.784740
 H         1.392802        -1.995806        -0.752253
 H         1.790318        -2.012357         1.060408
 H         2.840481         1.758847        -2.312104
