19
Iteration:  1844
 C        -0.075276         0.235326        -0.334672
 C         1.322103         0.003632         0.034801
 C         2.089133         0.700326         1.249572
 C         3.345898         0.414382         0.365579
 C         3.214940        -0.950782        -0.332244
 O         4.448516        -1.452385        -0.752258
 C         1.888540        -1.556070         0.106455
 C         2.557936         0.326059        -0.873773
 O         2.611089         1.110455        -1.987991
 H        -0.710554        -0.419105         0.161474
 H        -0.465768         1.294992        -0.075159
 H        -0.134545         0.020626        -1.431121
 H         1.856473         1.789147         1.122290
 H         2.029811         0.274503         2.297530
 H         4.332992         0.860511         0.450252
 H         4.368854        -2.171677        -1.318229
 H         1.255230        -2.213288        -0.575812
 H         1.908680        -1.909475         1.157037
 H         3.221343         1.901426        -1.833965
