19
Iteration:  3160charge 0 multiplicity 1
 C        -0.055886         0.305902        -0.302910
 C         1.345570        -0.103003         0.064095
 C         1.997121         0.684257         1.153244
 C         3.314914         0.482342         0.402874
 C         3.304470        -0.875100        -0.375993
 O         4.399412        -1.603958        -0.737688
 C         1.928889        -1.478810         0.163200
 C         2.545178         0.310705        -0.896092
 O         2.652386         1.092391        -1.993821
 H        -0.855544        -0.005648         0.379310
 H        -0.009787         1.371767        -0.452338
 H        -0.262223         0.035246        -1.290032
 H         1.798597         1.817266         1.034490
 H         1.966244         0.270384         2.222757
 H         4.117015         1.216198         0.405262
 H         4.233136        -2.240171        -1.546074
 H         1.484837        -2.271229        -0.410496
 H         2.073405        -1.861300         1.221088
 H         2.800078         1.959668        -1.661396
