19
Iteration:  5000charge 0 multiplicity 1
 C        -0.005272         0.403361        -0.433729
 C         1.292580        -0.072753         0.081628
 C         2.036132         0.701404         1.244251
 C         3.333639         0.400226         0.473849
 C         3.279517        -0.861171        -0.377797
 O         4.337909        -1.479478        -0.797369
 C         1.900248        -1.533199         0.208531
 C         2.522574         0.333794        -0.836844
 O         2.711375         0.928680        -2.052633
 H        -0.879133         0.027107         0.354213
 H         0.037900         1.498054        -0.443259
 H        -0.270209        -0.129854        -1.357501
 H         1.721674         1.697055         1.321360
 H         1.801440         0.439777         2.264769
 H         4.392128         0.672119         0.609299
 H         4.371080        -1.354449        -1.720938
 H         1.421763        -2.270785        -0.475638
 H         2.156843        -1.967232         1.228400
 H         2.880482         1.762490        -1.802190
