19
Iteration:  2456
 C        -0.036667         0.204160        -0.360275
 C         1.404147        -0.024347         0.029841
 C         1.961362         0.671637         1.297933
 C         3.326868         0.470830         0.618412
 C         3.235962        -0.863847        -0.353877
 O         4.368704        -1.597240        -0.864104
 C         1.920496        -1.445823         0.102499
 C         2.707186         0.500877        -0.803170
 O         2.582654         1.017759        -2.113076
 H        -0.682096        -0.562481         0.376751
 H        -0.348190         1.213121        -0.121535
 H        -0.392420        -0.110807        -1.438147
 H         1.737973         1.733459         1.313709
 H         1.640552         0.202490         2.262528
 H         4.273826         0.947622         1.060363
 H         4.285498        -1.725606        -1.833540
 H         1.339756        -2.159441        -0.596955
 H         2.004465        -1.870839         1.119529
 H         3.423188         1.472095        -2.188759
