19
Iteration:   798charge 0 multiplicity 1
 C         0.034920         0.294235        -0.340545
 C         1.379437         0.011249         0.163263
 C         2.104075         0.731363         1.316665
 C         3.387132         0.545990         0.406693
 C         3.228013        -0.855137        -0.317042
 O         4.333827        -1.528931        -0.849673
 C         2.044776        -1.507297         0.150113
 C         2.498584         0.361925        -0.867661
 O         2.407463         0.915895        -2.148634
 H        -0.803573         0.122887         0.476023
 H         0.018228         1.281331        -0.749036
 H        -0.259703        -0.412367        -1.079924
 H         2.080743         1.779981         1.462008
 H         2.147000         0.188660         2.241166
 H         4.396960         1.051706         0.558507
 H         4.862864        -1.568255        -0.128058
 H         1.486040        -1.923017        -0.662042
 H         1.742491        -2.120271         1.072240
 H         3.068246         0.451222        -2.664718
