19
Iteration:  4091
 C        -0.178614         0.271817        -0.144098
 C         1.321487        -0.025539         0.069363
 C         2.045848         0.686066         1.336346
 C         3.311657         0.515688         0.538519
 C         3.201606        -0.822858        -0.333093
 O         4.360995        -1.430948        -0.813083
 C         1.865690        -1.444103        -0.019117
 C         2.677012         0.432044        -0.846510
 O         2.888614         0.721292        -2.187675
 H        -0.687554        -0.357063         0.512234
 H        -0.776795         1.226748         0.046267
 H        -0.424354         0.011341        -1.213472
 H         1.838769         1.848857         1.384461
 H         1.833493         0.137082         2.278398
 H         4.337380         0.893086         0.755759
 H         4.101617        -1.484868        -1.767962
 H         1.478384        -1.884308        -0.969656
 H         1.535775        -2.065930         0.811864
 H         2.584566         1.693788        -2.344374
