19
Iteration:  3291
 C        -0.157646         0.283590        -0.287179
 C         1.319179        -0.023101         0.051319
 C         2.044173         0.644657         1.177468
 C         3.353932         0.413042         0.443854
 C         3.211945        -0.908022        -0.273347
 O         4.378679        -1.556172        -0.843723
 C         1.905533        -1.471171         0.225784
 C         2.605777         0.338187        -0.878590
 O         2.727322         1.056903        -2.123605
 H        -0.860637         0.272628         0.517985
 H        -0.224566         1.344262        -0.606024
 H        -0.532815        -0.435888        -1.128252
 H         1.871540         1.738519         1.112919
 H         1.869113         0.062715         2.191891
 H         4.440750         0.557591         0.711956
 H         4.897338        -0.824065        -1.210686
 H         1.571722        -2.280110        -0.366921
 H         1.915039        -1.752621         1.288775
 H         2.698087         1.999158        -1.855485
