19
Iteration:  3939charge 0 multiplicity 1
 C        -0.113382         0.266181        -0.249994
 C         1.306701         0.005254         0.059055
 C         2.083067         0.605938         1.248752
 C         3.370758         0.467032         0.392623
 C         3.213059        -0.878174        -0.305016
 O         4.426753        -1.502233        -0.727299
 C         1.783764        -1.465394         0.183569
 C         2.552200         0.339163        -0.906693
 O         2.758961         1.002849        -2.158895
 H        -0.917368        -0.365630         0.138039
 H        -0.296180         1.278164        -0.133880
 H        -0.340612         0.027718        -1.283323
 H         1.908351         1.713778         1.400287
 H         2.285726         0.116424         2.235009
 H         4.249784         1.069270         0.543050
 H         4.320622        -1.800239        -1.586434
 H         1.476474        -2.132647        -0.655499
 H         1.702914        -1.948435         1.160162
 H         3.023955         1.977057        -2.008048
