19
Iteration:   790charge 0 multiplicity 1
 C        -0.035279         0.300111        -0.328919
 C         1.391813         0.003765         0.155721
 C         2.182008         0.669388         1.275829
 C         3.353057         0.575847         0.394424
 C         3.260600        -0.840549        -0.278131
 O         4.342152        -1.468144        -0.880703
 C         1.912588        -1.479399         0.149823
 C         2.579028         0.364714        -0.824153
 O         2.440259         0.865832        -2.121697
 H        -0.718250         0.227178         0.480596
 H        -0.183916         1.338617        -0.725726
 H        -0.144550        -0.404900        -1.236600
 H         1.793964         1.760712         1.461182
 H         2.261370         0.096068         2.180101
 H         4.311322         1.187353         0.302704
 H         4.859462        -1.758150        -0.082119
 H         1.419545        -2.051554        -0.635470
 H         1.902630        -2.151360         1.071094
 H         2.979659         0.300088        -2.619150
