19
Iteration:  1482
 C        -0.128857         0.201934        -0.234952
 C         1.354738        -0.057225         0.015666
 C         2.053766         0.675282         1.218672
 C         3.371215         0.505819         0.343786
 C         3.272993        -0.912179        -0.302489
 O         4.472985        -1.365194        -0.809002
 C         1.898696        -1.534601         0.197953
 C         2.562820         0.335391        -0.883675
 O         2.562492         0.998363        -2.080558
 H        -0.712110        -0.173101         0.504981
 H        -0.319339         1.316777        -0.348578
 H        -0.443519        -0.345436        -1.185960
 H         1.863198         1.795765         1.122272
 H         2.053862         0.402529         2.254378
 H         4.418474         1.021813         0.350986
 H         4.452497        -2.362410        -0.905014
 H         1.565433        -2.303840        -0.562237
 H         1.800428        -1.920400         1.235519
 H         2.864923         1.896115        -1.801206
