19
Iteration:  4443
 C        -0.165992         0.322338        -0.233976
 C         1.349063        -0.109928        -0.011234
 C         2.088786         0.666094         1.194568
 C         3.368345         0.503963         0.391594
 C         3.287621        -0.873938        -0.289908
 O         4.421039        -1.584579        -0.617074
 C         1.898791        -1.514085        -0.008058
 C         2.617804         0.346830        -0.843458
 O         2.550079         1.123670        -2.043098
 H        -0.659635         0.449767         0.664679
 H        -0.326106         1.262877        -0.823375
 H        -0.571442        -0.467940        -0.827199
 H         1.900104         1.814597         1.217848
 H         2.209444         0.256565         2.316185
 H         4.340191         0.929145         0.647189
 H         4.490365        -1.809986        -1.517547
 H         1.521253        -1.865939        -1.025166
 H         1.669777        -2.217977         0.810545
 H         3.287911         0.958448        -2.587029
