19
Iteration:  3835charge 0 multiplicity 1
 C        -0.051818         0.257559        -0.316771
 C         1.313358        -0.073865         0.137394
 C         2.097422         0.704013         1.257773
 C         3.328183         0.428408         0.457220
 C         3.203971        -0.892352        -0.294549
 O         4.315050        -1.434434        -0.790666
 C         1.845097        -1.501041         0.151325
 C         2.572656         0.349354        -0.895520
 O         2.759614         0.988101        -2.112375
 H        -0.822052         0.167811         0.397085
 H        -0.163495         1.298929        -0.751539
 H        -0.251652        -0.401891        -1.182055
 H         2.077900         1.920650         1.218191
 H         2.161360         0.146857         2.270228
 H         4.324068         0.782342         0.548375
 H         4.144569        -1.705121        -1.797688
 H         1.461775        -2.123916        -0.672195
 H         1.787733        -2.023389         1.118016
 H         3.113238         1.840491        -1.960300
