19
Iteration:   122
 C        -0.221732         0.218777        -0.065762
 C         1.297034        -0.000667         0.110034
 C         2.092424         0.792079         1.234758
 C         3.389241         0.598160         0.314293
 C         3.266399        -0.900598        -0.208374
 O         4.307739        -1.492140        -0.930410
 C         1.863379        -1.420837         0.190156
 C         2.576160         0.296101        -0.905704
 O         2.836598         0.907228        -2.187334
 H        -0.802810        -0.306835         0.677861
 H        -0.491003         1.273159        -0.058857
 H        -0.539635        -0.194128        -1.004871
 H         1.682949         1.741889         1.288510
 H         2.167963         0.432787         2.214910
 H         4.387054         1.147805         0.318185
 H         5.048460        -1.998041        -0.339841
 H         1.503069        -1.938855        -0.747323
 H         1.655472        -2.002712         1.072766
 H         2.663694         0.242227        -2.881023
