19
Iteration:   785charge 0 multiplicity 1
 C        -0.051265         0.302818        -0.328488
 C         1.378272        -0.010181         0.125260
 C         2.205984         0.667752         1.277945
 C         3.379606         0.607777         0.380397
 C         3.262824        -0.834739        -0.274196
 O         4.350725        -1.435871        -0.881865
 C         1.845625        -1.468110         0.157817
 C         2.589606         0.355955        -0.819227
 O         2.462795         0.843582        -2.100719
 H        -0.837781         0.147105         0.513983
 H        -0.188301         1.315830        -0.678504
 H        -0.250635        -0.322517        -1.153189
 H         1.723220         1.566790         1.468015
 H         2.253542         0.103954         2.247908
 H         4.288982         1.133032         0.332512
 H         4.971301        -1.957419        -0.220871
 H         1.486579        -2.094693        -0.689585
 H         1.971786        -2.051949         1.087469
 H         2.963903         0.218394        -2.726731
