19
Iteration:  3484
 C        -0.145196         0.252452        -0.301130
 C         1.299160        -0.031662         0.139542
 C         2.153481         0.757358         1.276747
 C         3.303465         0.510946         0.440611
 C         3.194867        -0.912105        -0.328732
 O         4.350677        -1.480457        -0.917023
 C         1.848052        -1.562613         0.154406
 C         2.541327         0.344394        -0.808861
 O         2.870624         0.926434        -2.041488
 H        -0.901376         0.167416         0.519547
 H        -0.185513         1.252401        -0.718644
 H        -0.293081        -0.340563        -1.078558
 H         1.800609         1.837785         1.116810
 H         1.964005         0.181309         2.172663
 H         4.333198         0.859071         0.565348
 H         4.350625        -1.120029        -1.919704
 H         1.249418        -2.183902        -0.569430
 H         1.625292        -2.020407         1.135463
 H         2.917659         1.946028        -2.057049
