19
Iteration:  3197charge 0 multiplicity 1
 C        -0.124990         0.240964        -0.232611
 C         1.302513        -0.004584         0.053420
 C         2.090187         0.696297         1.266458
 C         3.349410         0.453305         0.489838
 C         3.177988        -0.897614        -0.314684
 O         4.398472        -1.400233        -0.772791
 C         1.855080        -1.478304         0.081716
 C         2.633568         0.360438        -0.884894
 O         2.787372         0.903115        -2.157441
 H        -0.917722        -0.465706         0.350085
 H        -0.503077         1.288162         0.050393
 H        -0.286277         0.002839        -1.333766
 H         1.848219         1.810532         1.353424
 H         1.943289         0.223916         2.205901
 H         4.314094         0.923374         0.736425
 H         4.117207        -2.087134        -1.415149
 H         1.352665        -2.034872        -0.764349
 H         1.774559        -2.003683         1.066461
 H         2.724939         1.878617        -2.181303
