19
Iteration:   937
 C        -0.116542         0.261150        -0.171429
 C         1.319111        -0.088391         0.156058
 C         2.096278         0.776887         1.212882
 C         3.369412         0.568916         0.473472
 C         3.213157        -0.829182        -0.355975
 O         4.294119        -1.499055        -0.860035
 C         1.940560        -1.537172         0.135830
 C         2.582436         0.371951        -0.881077
 O         2.720795         0.845010        -2.195454
 H        -0.723886        -0.106484         0.682947
 H        -0.104648         1.354402        -0.110439
 H        -0.494382        -0.134743        -1.111252
 H         1.985191         1.825229         1.185612
 H         2.174984         0.344951         2.256708
 H         4.415752         0.952004         0.430636
 H         5.190972        -0.903448        -0.539047
 H         1.368514        -2.153011        -0.601970
 H         2.055196        -2.124104         1.001628
 H         1.775697         1.141207        -2.455401
