19
Iteration:   786
 C        -0.048207         0.302200        -0.333135
 C         1.382437        -0.007006         0.132005
 C         2.203637         0.667831         1.276938
 C         3.370435         0.600163         0.383153
 C         3.263711        -0.834693        -0.274767
 O         4.350545        -1.443105        -0.879336
 C         1.854417        -1.469469         0.153986
 C         2.590613         0.358429        -0.817554
 O         2.456921         0.848698        -2.103496
 H        -0.832537         0.168329         0.534110
 H        -0.192929         1.304527        -0.684764
 H        -0.215101        -0.321708        -1.155382
 H         1.736301         1.579412         1.461902
 H         2.255479         0.110174         2.219807
 H         4.294859         1.153620         0.314266
 H         4.923354        -1.901471        -0.228631
 H         1.477705        -2.080703        -0.668349
 H         1.972417        -2.088405         1.101035
 H         2.982993         0.213844        -2.722363
