19
Iteration:   858charge 0 multiplicity 1
 C        -0.131818         0.137455        -0.137152
 C         1.354725        -0.066867         0.098649
 C         2.158054         0.805113         1.155082
 C         3.353311         0.496820         0.277556
 C         3.268856        -0.943332        -0.361778
 O         4.347825        -1.695893        -0.642005
 C         1.987773        -1.476138         0.149575
 C         2.510892         0.303260        -0.965384
 O         2.517374         1.197883        -2.107092
 H        -0.737946        -0.110440         0.648791
 H        -0.414784         1.238075        -0.305884
 H        -0.351819        -0.354893        -1.171759
 H         1.916082         1.908722         1.016255
 H         2.203355         0.681080         2.242520
 H         4.196671         1.120253         0.255409
 H         5.161638        -1.063068        -0.688402
 H         1.489324        -2.132157        -0.630256
 H         1.943369        -1.821070         1.177338
 H         3.453568         1.444393        -2.459143
