19
Iteration:  2217
 C        -0.116416         0.141307        -0.321880
 C         1.358982         0.090792         0.024705
 C         2.149211         0.653730         1.300103
 C         3.416934         0.443562         0.477106
 C         3.279849        -0.828780        -0.391032
 O         4.351180        -1.709816        -0.606563
 C         1.866942        -1.446025        -0.093433
 C         2.651234         0.411766        -0.865723
 O         2.539671         1.150941        -2.079868
 H        -0.578466        -0.620979         0.318373
 H        -0.709597         1.153871         0.043143
 H        -0.282292        -0.167312        -1.375431
 H         2.020686         1.700478         1.448268
 H         2.133269        -0.039077         2.162961
 H         4.462563         0.714949         0.374173
 H         5.230804        -1.182430        -0.403374
 H         1.489342        -1.830387        -1.094437
 H         1.553514        -2.149437         0.673714
 H         1.881956         1.794485        -2.024091
