19
Iteration:  2620charge 0 multiplicity 1
 C        -0.129349         0.307527        -0.303248
 C         1.347336        -0.002913         0.007861
 C         1.988658         0.633742         1.270736
 C         3.313228         0.478444         0.484591
 C         3.285188        -0.942226        -0.291957
 O         4.433680        -1.552519        -0.835999
 C         1.943896        -1.466907         0.183661
 C         2.615281         0.307273        -0.936701
 O         2.643993         1.158935        -2.027398
 H        -0.782956        -0.489822         0.166916
 H        -0.374269         1.271210        -0.020259
 H        -0.329296         0.320968        -1.401446
 H         1.738888         1.779409         1.261363
 H         1.809692         0.123569         2.264213
 H         4.280576         0.892373         0.610235
 H         3.962695        -1.999357        -1.555193
 H         1.534680        -2.368248        -0.377811
 H         1.950013        -1.725541         1.222792
 H         3.335879         0.750131        -2.635701
