19
Iteration:  4256charge 0 multiplicity 1
 C        -0.197347         0.323098        -0.142440
 C         1.333810         0.001566        -0.067091
 C         2.021374         0.652470         1.206266
 C         3.347752         0.418921         0.487124
 C         3.241363        -0.854797        -0.266836
 O         4.441074        -1.480232        -0.751447
 C         1.898239        -1.471974         0.040465
 C         2.648483         0.330318        -0.880270
 O         2.754377         0.936632        -2.146976
 H        -0.653428         0.162124         0.862413
 H        -0.325740         1.531049        -0.167082
 H        -0.852436        -0.121047        -0.982098
 H         1.795598         1.732358         1.310468
 H         1.880089        -0.010150         2.121294
 H         4.265792         0.883754         0.800433
 H         4.142169        -1.983939        -1.457597
 H         1.580230        -2.094815        -0.825811
 H         1.728747        -2.040663         0.948011
 H         2.536190         1.868416        -2.069439
