19
Iteration:  1348charge 0 multiplicity 1
 C        -0.120842         0.252674        -0.203397
 C         1.320123        -0.037574         0.106477
 C         2.084160         0.594277         1.271070
 C         3.336548         0.589358         0.474369
 C         3.288846        -0.757558        -0.255370
 O         4.366271        -1.393316        -0.856547
 C         1.988494        -1.440629         0.088762
 C         2.548538         0.427013        -0.838070
 O         2.623423         0.655065        -2.189460
 H        -0.715174         0.028204         0.613320
 H        -0.447646         1.249556        -0.590343
 H        -0.440181        -0.402041        -1.079774
 H         1.691173         1.568522         1.444771
 H         2.173465         0.027677         2.229240
 H         4.311543         0.975840         0.726408
 H         4.739959        -0.786251        -1.654388
 H         1.710047        -2.047488        -0.785285
 H         1.893741        -1.976694         1.080924
 H         2.632790         1.663153        -2.278707
