19
Iteration:  1570charge 0 multiplicity 1
 C        -0.165170         0.144429        -0.165263
 C         1.335783         0.011928         0.062693
 C         2.086397         0.661778         1.245964
 C         3.338474         0.526824         0.480409
 C         3.256258        -0.816529        -0.364652
 O         4.434514        -1.452990        -0.744739
 C         1.888329        -1.507429         0.038602
 C         2.583673         0.466490        -0.829388
 O         2.708024         0.893928        -2.180515
 H        -0.694113        -0.330305         0.570095
 H        -0.528332         1.242061        -0.126541
 H        -0.510237        -0.365244        -1.131100
 H         1.747704         1.744713         1.369541
 H         2.162676         0.110567         2.159980
 H         4.368214         0.947255         0.750378
 H         4.248981        -2.054138        -1.443555
 H         1.478565        -1.928710        -0.932986
 H         1.649330        -2.155465         0.933544
 H         2.656022         1.914515        -2.268923
