19
Iteration:   680charge 0 multiplicity 1
 C        -0.153291         0.096045        -0.095260
 C         1.374769         0.067709         0.127467
 C         2.116881         0.824815         1.194741
 C         3.354743         0.560842         0.325796
 C         3.194180        -0.898425        -0.425833
 O         4.287402        -1.659554        -0.781810
 C         1.956757        -1.480259         0.150342
 C         2.596851         0.399617        -0.924239
 O         2.724464         1.108559        -2.151804
 H        -0.687768        -0.334809         0.759781
 H        -0.604181         1.071761        -0.286905
 H        -0.505158        -0.566505        -0.966981
 H         1.981370         2.005184         1.087050
 H         1.955708         0.361256         2.191969
 H         4.376226         0.830735         0.514447
 H         4.744034        -1.645411         0.038583
 H         1.375263        -2.253557        -0.327758
 H         2.045213        -1.823440         1.213852
 H         2.576385         0.364692        -2.836407
