19
Iteration:  1980charge 0 multiplicity 1
 C        -0.100894         0.104683        -0.321916
 C         1.334849        -0.050766         0.044851
 C         2.096672         0.683936         1.381290
 C         3.351340         0.530034         0.402497
 C         3.282023        -0.875185        -0.332967
 O         4.303621        -1.584771        -0.789873
 C         1.934241        -1.430507         0.039747
 C         2.585069         0.458965        -0.867341
 O         2.673249         1.092056        -2.048906
 H        -0.805899        -0.503727         0.357211
 H        -0.408134         1.152776        -0.498381
 H        -0.121479        -0.284160        -1.343364
 H         1.734745         1.758710         1.485003
 H         2.120251         0.098160         2.293154
 H         4.270050         0.970797         0.448010
 H         3.998974        -2.372075        -1.078181
 H         1.609192        -2.068333        -0.740633
 H         1.887188        -1.937562         0.997929
 H         3.022349         2.047916        -1.956818
