19
Iteration:  2078charge 0 multiplicity 1
 C        -0.073117         0.325485        -0.212751
 C         1.329247        -0.042910         0.029735
 C         2.039353         0.542606         1.298824
 C         3.375910         0.492219         0.523179
 C         3.237851        -0.799177        -0.328254
 O         4.388339        -1.468790        -0.753656
 C         1.952627        -1.540493        -0.006364
 C         2.537856         0.390520        -0.874085
 O         2.648771         1.062023        -2.120901
 H        -0.723403         0.148173         0.644440
 H        -0.036713         1.422258        -0.309222
 H        -0.505040        -0.121265        -1.093599
 H         1.672073         1.583590         1.537981
 H         1.982362        -0.173094         2.117762
 H         4.350424         1.033462         0.666467
 H         4.134507        -1.951370        -1.498069
 H         1.651276        -2.124524        -0.881508
 H         1.695778        -1.998370         0.984824
 H         3.125622         0.309841        -2.639648
