19
Iteration:   654
 C        -0.073826         0.210141        -0.237200
 C         1.375641        -0.049786         0.104020
 C         2.135793         0.790880         1.121216
 C         3.357514         0.529180         0.285979
 C         3.290970        -0.942294        -0.267577
 O         4.350523        -1.594889        -0.799137
 C         1.956503        -1.442166         0.195229
 C         2.529433         0.281926        -0.903794
 O         2.586901         1.128843        -2.069012
 H        -0.742300         0.189360         0.742517
 H        -0.175294         1.256298        -0.543164
 H        -0.594293        -0.341326        -0.945016
 H         1.996752         1.818149         0.983435
 H         2.154535         0.437866         2.157630
 H         4.329353         1.030416         0.453246
 H         4.795520        -2.016471         0.053808
 H         1.485066        -2.167573        -0.450030
 H         1.734930        -1.960692         1.187666
 H         1.891809         0.708857        -2.634533
