19
Iteration:  2191charge 0 multiplicity 1
 C        -0.078922         0.287370        -0.246433
 C         1.373610        -0.074631         0.060723
 C         2.054602         0.641405         1.237676
 C         3.344525         0.551525         0.464021
 C         3.288743        -0.877670        -0.354956
 O         4.311890        -1.655953        -0.726420
 C         1.918678        -1.568344        -0.067512
 C         2.623983         0.399374        -0.831595
 O         2.660499         1.168692        -2.030520
 H        -0.768962        -0.395906         0.407383
 H        -0.359725         1.262729         0.020904
 H        -0.322378         0.061959        -1.325473
 H         1.616494         1.625615         0.945996
 H         2.054649         0.320207         2.334524
 H         4.368337         0.852065         0.491096
 H         5.287079        -1.238284        -0.561409
 H         1.493779        -1.994580        -1.000635
 H         1.669090        -2.189581         0.836534
 H         1.840468         1.212065        -2.480253
