19
Iteration:  1613charge 0 multiplicity 1
 C        -0.175995         0.189882        -0.191224
 C         1.306976        -0.098527         0.014588
 C         1.999167         0.708864         1.153352
 C         3.336274         0.514100         0.257169
 C         3.220827        -0.918848        -0.323684
 O         4.460229        -1.558523        -0.863757
 C         1.942492        -1.527244         0.243397
 C         2.583332         0.338021        -0.913025
 O         2.706723         1.162466        -2.031356
 H        -0.748819        -0.535198         0.438186
 H        -0.518695         1.242566         0.249173
 H        -0.545914         0.160711        -1.317704
 H         1.830894         1.804116         1.112069
 H         1.866976         0.335376         2.178711
 H         4.298786         1.003115         0.431056
 H         4.771327        -2.031727         0.070090
 H         1.519999        -2.152785        -0.597535
 H         2.061294        -2.019077         1.225782
 H         2.974174         2.082018        -1.673472
