19
Iteration:  4508charge 0 multiplicity 1
 C        -0.100266         0.207443        -0.381416
 C         1.307177        -0.010083         0.125305
 C         2.082785         0.672710         1.273329
 C         3.298374         0.541646         0.414361
 C         3.278944        -0.838471        -0.254495
 O         4.336054        -1.510383        -0.899739
 C         1.940329        -1.491338         0.179185
 C         2.541877         0.367374        -0.825921
 O         2.818454         1.055348        -2.025271
 H        -0.910858        -0.442584         0.061372
 H        -0.448442         1.289107        -0.150619
 H        -0.179984         0.093460        -1.467940
 H         1.727583         1.759534         1.522506
 H         1.964051         0.284314         2.345496
 H         4.153353         1.195281         0.333982
 H         3.950659        -2.345104        -1.056546
 H         1.528061        -2.027173        -0.775014
 H         1.665639        -2.186706         0.999913
 H         2.635165         0.309185        -2.675230
