19
Iteration:  3027charge 0 multiplicity 1
 C        -0.147193         0.188656        -0.219638
 C         1.285291        -0.053800         0.181113
 C         2.153409         0.708998         1.239767
 C         3.371304         0.503462         0.433995
 C         3.169909        -0.840718        -0.282861
 O         4.347224        -1.434648        -0.778966
 C         1.800135        -1.455115         0.022960
 C         2.560390         0.431986        -0.851562
 O         2.865615         0.841878        -2.149761
 H        -1.002008        -0.398635         0.348139
 H        -0.327401         1.240293         0.013581
 H        -0.341952        -0.041420        -1.340148
 H         1.820941         1.712558         1.459270
 H         2.090324         0.280761         2.169699
 H         4.440340         0.758485         0.705215
 H         4.329526        -1.499146        -1.697279
 H         1.429568        -1.850103        -0.942859
 H         1.754813        -2.276114         0.775214
 H         2.823763         1.781554        -2.215563
