19
Iteration:  1043
 C        -0.215924         0.085253        -0.133536
 C         1.360773         0.016096         0.016796
 C         2.169414         0.763924         1.114984
 C         3.382711         0.495965         0.307261
 C         3.282475        -0.872294        -0.307501
 O         4.444356        -1.568700        -0.694837
 C         1.981739        -1.447250         0.180705
 C         2.542191         0.292780        -0.973071
 O         2.488252         1.148282        -2.090699
 H        -0.753482        -0.243181         0.680697
 H        -0.336506         1.201471        -0.089469
 H        -0.696380        -0.226516        -1.128403
 H         1.709547         1.831325         1.217544
 H         2.197945         0.394532         2.119043
 H         4.330696         1.030057         0.353461
 H         4.406828        -2.483399        -0.482970
 H         1.552350        -2.100287        -0.626310
 H         1.925559        -1.848461         1.228584
 H         3.433990         1.192317        -2.478895
