19
Iteration:  3185
 C        -0.200066         0.314418        -0.285449
 C         1.309447        -0.026737         0.087227
 C         2.073705         0.730646         1.228371
 C         3.322589         0.501368         0.392578
 C         3.265086        -0.877539        -0.226879
 O         4.374788        -1.448053        -0.805010
 C         1.928760        -1.596447         0.085866
 C         2.555961         0.310673        -0.876789
 O         2.795667         0.972923        -2.076269
 H        -0.943904        -0.411671         0.354132
 H        -0.394971         1.451905        -0.173382
 H        -0.400396         0.181855        -1.367687
 H         1.820615         1.880444         1.188782
 H         2.143362         0.386833         2.225984
 H         4.401857         0.821077         0.538161
 H         4.172345        -2.316401        -1.393779
 H         1.612317        -2.318442        -0.708264
 H         1.895040        -2.176868         1.075412
 H         2.642806         1.856531        -1.801043
