19
Iteration:  1901
 C        -0.087283         0.307984        -0.245060
 C         1.327738        -0.079184        -0.021914
 C         2.019630         0.603716         1.265211
 C         3.366867         0.607025         0.510478
 C         3.322107        -0.823019        -0.237657
 O         4.417829        -1.557227        -0.720839
 C         1.947811        -1.511164        -0.120917
 C         2.620984         0.399730        -0.802839
 O         2.500326         0.962543        -2.072788
 H        -0.571184         0.132803         0.670835
 H        -0.015337         1.510336        -0.459679
 H        -0.711703        -0.147941        -0.976684
 H         1.541733         1.593682         1.606246
 H         1.952236         0.013319         2.196275
 H         4.433991         1.081018         0.842611
 H         4.456841        -1.564827        -1.820132
 H         1.636164        -1.986101        -1.076956
 H         1.715727        -2.176040         0.704690
 H         3.389007         1.024741        -2.453560
