19
Iteration:  4699
 C        -0.131940         0.285227        -0.231383
 C         1.329596         0.016361        -0.026076
 C         1.988906         0.626068         1.265809
 C         3.311606         0.480764         0.467141
 C         3.281724        -0.916600        -0.380779
 O         4.431969        -1.594120        -0.682088
 C         1.893820        -1.456940         0.057268
 C         2.598323         0.354490        -0.917975
 O         2.686301         1.185975        -2.039902
 H        -0.761470         0.012712         0.519410
 H        -0.328235         1.359220        -0.376366
 H        -0.219273        -0.215155        -1.229253
 H         1.769264         1.636161         1.435394
 H         2.001004         0.088068         2.280706
 H         4.339018         0.732165         0.705147
 H         4.251633        -2.335108        -1.420401
 H         1.512839        -2.062499        -0.754912
 H         1.924329        -1.907192         1.109766
 H         3.091072         0.590519        -2.822917
