19
Iteration:   129
 C        -0.202472         0.207278        -0.047561
 C         1.295210        -0.006273         0.132513
 C         2.105674         0.845716         1.199747
 C         3.367749         0.602793         0.332236
 C         3.256691        -0.836204        -0.249238
 O         4.303491        -1.509837        -0.936242
 C         1.867871        -1.479505         0.142662
 C         2.551328         0.353766        -0.943987
 O         2.842821         0.869360        -2.141054
 H        -0.813826        -0.264725         0.891565
 H        -0.483694         1.284913        -0.185554
 H        -0.504817        -0.327472        -0.946505
 H         1.721229         1.922075         1.327695
 H         2.171209         0.328157         2.247438
 H         4.367942         0.997292         0.472832
 H         4.755970        -1.979406        -0.281422
 H         1.549378        -1.973550        -0.738138
 H         1.725011        -2.123937         1.069103
 H         3.003955         0.170055        -2.731055
