19
Iteration:   641
 C        -0.080433         0.340710        -0.276114
 C         1.347868        -0.004882         0.012970
 C         2.168284         0.765442         1.157303
 C         3.396744         0.520676         0.284195
 C         3.299704        -0.873326        -0.225141
 O         4.396057        -1.578289        -0.795420
 C         1.935142        -1.530717         0.224040
 C         2.531161         0.234651        -0.933480
 O         2.494737         1.044431        -1.964374
 H        -0.716106         0.290507         0.643961
 H        -0.116432         1.344073        -0.771902
 H        -0.407817        -0.435673        -0.976271
 H         1.849340         1.734450         1.212156
 H         2.014379         0.382093         2.175471
 H         4.350895         1.108951         0.043705
 H         4.920249        -2.044812        -0.245494
 H         1.638654        -2.131967        -0.702980
 H         1.911318        -1.912111         1.245785
 H         1.856675         0.805988        -2.694172
