19
Iteration:   211
 C         0.017801         0.355332        -0.266041
 C         1.418172        -0.058377         0.166656
 C         2.165080         0.790545         1.218208
 C         3.354751         0.493496         0.343743
 C         3.196827        -0.940756        -0.352210
 O         4.344792        -1.564996        -0.771492
 C         1.960823        -1.536740         0.158603
 C         2.531329         0.336824        -0.897146
 O         2.408278         0.998241        -2.120675
 H        -0.574907         0.775227         0.501355
 H         0.140271         1.136577        -1.008507
 H        -0.548047        -0.500965        -0.810898
 H         1.835734         1.762701         1.101748
 H         2.166056         0.493835         2.206020
 H         4.260124         0.942468         0.645975
 H         4.940912        -1.631434        -0.133449
 H         1.323131        -2.115488        -0.617601
 H         2.063860        -2.108206         1.044726
 H         3.328337         1.054659        -2.423665
