19
Iteration:  2124
 C        -0.089839         0.219651        -0.271468
 C         1.345986        -0.015255         0.139077
 C         2.050447         0.685787         1.334566
 C         3.362221         0.462873         0.502872
 C         3.185297        -0.847942        -0.313126
 O         4.310620        -1.435510        -0.974486
 C         1.850967        -1.469622        -0.036600
 C         2.616888         0.375767        -0.819529
 O         2.714691         0.981490        -2.029025
 H        -0.841009         0.173522         0.623114
 H        -0.322932         1.094989        -0.772340
 H        -0.321589        -0.686638        -0.878828
 H         1.848676         1.773085         1.189480
 H         1.942249         0.251386         2.358740
 H         4.469164         0.740100         0.719513
 H         4.822102        -1.885445        -0.377990
 H         1.416258        -1.752197        -0.997912
 H         1.773567        -2.268412         0.777902
 H         3.674291         0.925838        -2.322550
