19
Iteration:  2978
 C        -0.138316         0.240685        -0.266948
 C         1.377833        -0.043632         0.075406
 C         2.057871         0.676592         1.221330
 C         3.364622         0.540238         0.512565
 C         3.264820        -0.879240        -0.331814
 O         4.327304        -1.665785        -0.768110
 C         1.923704        -1.471781         0.125711
 C         2.650002         0.414104        -0.859153
 O         2.624708         1.024562        -2.160219
 H        -0.835156        -0.221261         0.329955
 H        -0.425759         1.322707        -0.236945
 H        -0.262006        -0.170728        -1.256557
 H         1.728257         1.727788         1.271505
 H         1.775429         0.325347         2.314253
 H         4.239777         1.088582         0.693159
 H         4.661084        -1.303149        -1.710911
 H         1.594031        -2.183882        -0.640829
 H         1.918814        -1.941949         1.107108
 H         3.101940         1.911370        -2.045588
