19
Iteration:    32charge 0 multiplicity 1
 C        -0.057710         0.256651        -0.317508
 C         1.414662        -0.001079         0.061814
 C         2.199827         0.770751         1.199300
 C         3.411444         0.543043         0.395800
 C         3.263284        -0.876872        -0.381424
 O         4.368518        -1.606317        -0.672775
 C         1.963234        -1.448163         0.172771
 C         2.594758         0.321769        -0.909818
 O         2.315148         0.970596        -2.144451
 H        -0.785111        -0.514398         0.144295
 H        -0.397671         1.264805        -0.080018
 H        -0.090853         0.158863        -1.322379
 H         1.856516         1.720006         1.378188
 H         2.244387         0.335630         2.174035
 H         4.365163         1.026221         0.465481
 H         4.625504        -2.058144         0.295870
 H         1.596119        -2.154539        -0.533762
 H         1.916165        -1.899493         1.191398
 H         2.982438         1.526424        -2.599074
