19
Iteration:  4999charge 0 multiplicity 1
 C        -0.014530         0.404599        -0.439511
 C         1.291744        -0.073252         0.087145
 C         2.042568         0.691064         1.243603
 C         3.334572         0.400454         0.478848
 C         3.292574        -0.862825        -0.379537
 O         4.333691        -1.485297        -0.795015
 C         1.902781        -1.525632         0.212515
 C         2.525072         0.337877        -0.841208
 O         2.705047         0.932064        -2.057831
 H        -0.868687         0.003239         0.331330
 H         0.038930         1.516589        -0.430967
 H        -0.276650        -0.154133        -1.393141
 H         1.744622         1.689403         1.339487
 H         1.778210         0.453854         2.257919
 H         4.377018         0.676154         0.599555
 H         4.368192        -1.346789        -1.699720
 H         1.413220        -2.262951        -0.456925
 H         2.153659        -1.952124         1.229513
 H         2.889799         1.782286        -1.776832
