19
Iteration:  1931charge 0 multiplicity 1
 C        -0.095967         0.305806        -0.218840
 C         1.317650        -0.058524         0.040486
 C         2.010305         0.681284         1.187793
 C         3.317219         0.409051         0.518287
 C         3.244301        -0.900382        -0.370998
 O         4.504900        -1.422436        -0.739285
 C         1.916175        -1.560279         0.025704
 C         2.540086         0.311853        -0.866336
 O         2.610817         1.066830        -2.048737
 H        -0.542558         0.136131         0.745621
 H        -0.067002         1.414707        -0.515567
 H        -0.728042        -0.153043        -1.005409
 H         1.760188         1.794815         1.226891
 H         1.772538         0.313837         2.279617
 H         4.413636         0.754720         0.698123
 H         4.585302        -1.342792        -1.771236
 H         1.374479        -2.255665        -0.749920
 H         1.806875        -2.215128         0.978380
 H         3.510632         1.007234        -2.370003
