19
Iteration:  4473
 C        -0.095402         0.243121        -0.337938
 C         1.354780         0.028535         0.040064
 C         2.016746         0.684028         1.245732
 C         3.332680         0.396954         0.455916
 C         3.209074        -0.910090        -0.377496
 O         4.395496        -1.483402        -0.753650
 C         1.904067        -1.468419         0.197541
 C         2.646850         0.387551        -0.863991
 O         2.644480         1.100293        -2.044249
 H        -0.723420        -0.155827         0.608165
 H        -0.320818         1.248939        -0.696577
 H        -0.289444        -0.524405        -1.134293
 H         2.028948         1.838058         1.256075
 H         1.941603         0.076347         2.155501
 H         4.367210         0.708563         0.742320
 H         4.357638        -1.879213        -1.647279
 H         1.260948        -1.944243        -0.614470
 H         1.862468        -2.003352         1.168224
 H         3.184836         0.466591        -2.685484
