19
Iteration:  3935charge 0 multiplicity 1
 C        -0.135617         0.273678        -0.232091
 C         1.304979         0.005698         0.110379
 C         2.071130         0.621169         1.260716
 C         3.352057         0.463132         0.368877
 C         3.182903        -0.905834        -0.305844
 O         4.451110        -1.489259        -0.712408
 C         1.779349        -1.477615         0.146435
 C         2.588042         0.353435        -0.905203
 O         2.773572         0.983512        -2.167436
 H        -0.867306        -0.371897         0.186663
 H        -0.297880         1.384678        -0.054853
 H        -0.306101         0.032185        -1.300083
 H         1.900395         1.813438         1.330057
 H         2.227987        -0.014733         2.220514
 H         4.205780         1.181404         0.454009
 H         4.326709        -1.748795        -1.755602
 H         1.537726        -2.068952        -0.728880
 H         1.687731        -1.976417         1.130427
 H         3.015494         1.881089        -2.023598
