19
Iteration:  4410charge 0 multiplicity 1
 C        -0.056657         0.365264        -0.212373
 C         1.336300        -0.097998        -0.018592
 C         2.101226         0.546940         1.274251
 C         3.309536         0.476167         0.445014
 C         3.277845        -0.920482        -0.397270
 O         4.470881        -1.542449        -0.568302
 C         1.896470        -1.445292         0.011541
 C         2.592259         0.425154        -0.977149
 O         2.521553         1.095084        -2.144475
 H        -0.568935         0.351005         0.661869
 H        -0.235799         1.300041        -0.813929
 H        -0.674179        -0.379283        -0.695903
 H         1.730404         1.635202         1.493178
 H         2.040431         0.177948         2.429738
 H         4.332212         0.836776         0.676816
 H         4.246612        -2.392966        -0.961141
 H         1.469141        -2.164563        -0.779990
 H         1.674623        -2.034852         0.907769
 H         3.359315         1.664238        -2.324182
