19
Iteration:  4743charge 0 multiplicity 1
 C        -0.095974         0.263003        -0.194237
 C         1.359629         0.060077         0.072704
 C         2.095381         0.669789         1.259904
 C         3.315137         0.476330         0.398185
 C         3.217843        -0.910963        -0.416071
 O         4.443459        -1.601627        -0.498590
 C         1.835923        -1.469608        -0.138196
 C         2.638685         0.404765        -0.919761
 O         2.591633         1.083171        -2.118571
 H        -0.627889        -0.517663         0.299895
 H        -0.394761         1.190503         0.350542
 H        -0.340780         0.172754        -1.314924
 H         1.823182         1.612882         1.515680
 H         2.036283         0.129210         2.172891
 H         4.317431         0.662495         0.755919
 H         4.184352        -2.122595        -1.361055
 H         1.353051        -1.893854        -1.056654
 H         1.816236        -2.207909         0.750489
 H         3.606271         1.384545        -2.286851
