19
Iteration:   260charge 0 multiplicity 1
 C        -0.060228         0.337167        -0.346656
 C         1.376505         0.025087         0.128834
 C         2.178180         0.747635         1.268695
 C         3.439732         0.571650         0.339468
 C         3.257403        -0.895826        -0.317411
 O         4.356422        -1.656678        -0.760185
 C         1.967485        -1.461841         0.158842
 C         2.589608         0.321916        -0.889748
 O         2.320150         0.991887        -2.103026
 H        -0.861051        -0.216270         0.233465
 H        -0.313822         1.418431        -0.349957
 H        -0.056209         0.005524        -1.346571
 H         1.969586         1.887966         1.371004
 H         2.201870         0.323827         2.316587
 H         4.535237         0.846729         0.281600
 H         4.731860        -2.179154         0.086626
 H         1.632264        -2.080969        -0.644498
 H         1.971232        -2.068965         1.163929
 H         3.100662         0.980105        -2.711134
