19
Iteration:  2932
 C        -0.118635         0.293934        -0.328831
 C         1.317778        -0.057256         0.084415
 C         2.064517         0.632948         1.227969
 C         3.387655         0.416567         0.365644
 C         3.241576        -0.954082        -0.352795
 O         4.527848        -1.482319        -0.718043
 C         1.777430        -1.528551         0.179359
 C         2.589960         0.359369        -0.907532
 O         2.633948         1.097757        -2.085436
 H        -0.667386         0.266020         0.567654
 H        -0.203944         1.336608        -0.625760
 H        -0.500526        -0.375221        -1.006569
 H         1.868576         1.754047         1.246590
 H         2.097210         0.511356         2.397992
 H         4.460766         0.704353         0.445936
 H         4.410397        -1.910814        -1.672906
 H         1.250964        -2.172592        -0.489263
 H         1.765351        -1.938936         1.205451
 H         2.547907         2.048029        -1.736858
