19
Iteration:   400
 C        -0.018495         0.276103        -0.186433
 C         1.417074        -0.021859         0.056089
 C         2.124754         0.794147         1.208370
 C         3.419567         0.494087         0.373965
 C         3.221823        -0.893224        -0.372630
 O         4.325673        -1.573277        -0.785327
 C         1.932614        -1.530928         0.138454
 C         2.554913         0.352841        -0.882989
 O         2.498905         1.063787        -2.101295
 H        -0.584370         0.541131         0.673566
 H        -0.143819         1.139656        -0.911474
 H        -0.535708        -0.582205        -0.709924
 H         1.880778         1.897622         1.200142
 H         1.934856         0.350952         2.313568
 H         4.451969         0.846271         0.323835
 H         4.831901        -1.949954         0.131769
 H         1.397682        -2.270997        -0.466243
 H         1.988113        -1.832220         1.177205
 H         2.489979         0.392619        -2.873992
