19
Iteration:  2680
 C        -0.148429         0.209197        -0.240716
 C         1.318074         0.098657         0.011813
 C         2.109176         0.558390         1.259337
 C         3.437905         0.438331         0.458827
 C         3.236868        -0.882014        -0.301423
 O         4.474881        -1.530391        -0.652333
 C         1.809299        -1.430690         0.019510
 C         2.624621         0.437514        -0.824995
 O         2.577404         1.042236        -2.197587
 H        -0.872370        -0.040179         0.604712
 H        -0.415725         1.340587        -0.479238
 H        -0.365551        -0.453619        -1.111449
 H         1.842092         1.487094         1.614023
 H         1.898894        -0.151587         2.025184
 H         4.396132         0.843456         0.684735
 H         4.404613        -1.901846        -1.669438
 H         1.309598        -1.976450        -0.774082
 H         1.624353        -1.905949         1.032886
 H         3.429486         1.450588        -2.217806
