19
Iteration:  3626
 C        -0.166982         0.276570        -0.278503
 C         1.303315        -0.105802         0.131900
 C         2.088789         0.712378         1.245606
 C         3.350093         0.512749         0.473851
 C         3.240667        -0.859595        -0.257309
 O         4.357545        -1.476818        -0.891575
 C         1.860387        -1.455768         0.077237
 C         2.594933         0.359919        -0.843118
 O         2.817873         0.889641        -2.052607
 H        -1.029938        -0.113082         0.467131
 H        -0.249042         1.452102        -0.395295
 H        -0.341052        -0.082100        -1.358846
 H         1.830300         1.663266         1.202817
 H         2.046101         0.192881         2.145779
 H         4.330247         0.888270         0.775397
 H         3.944343        -1.709056        -1.844606
 H         1.610549        -2.069672        -0.809699
 H         1.705715        -1.995333         1.011861
 H         2.835739         1.904794        -1.982448
