19
Iteration:  4638charge 0 multiplicity 1
 C        -0.082200         0.234672        -0.389590
 C         1.305906         0.022873         0.000347
 C         2.023465         0.678650         1.292924
 C         3.352550         0.488283         0.481901
 C         3.238616        -0.902827        -0.322309
 O         4.415261        -1.581439        -0.837976
 C         1.837124        -1.491906         0.147699
 C         2.601144         0.402341        -0.785857
 O         2.772688         1.074733        -1.963891
 H        -0.885813         0.332835         0.518784
 H        -0.034663         1.100789        -1.118325
 H        -0.571486        -0.531876        -1.023689
 H         1.839084         1.810724         1.263661
 H         2.085180         0.084234         2.159582
 H         4.287414         0.968505         0.681825
 H         4.445964        -1.371380        -1.846757
 H         1.388670        -2.139206        -0.677909
 H         1.775505        -2.066796         1.071971
 H         2.089835         0.766547        -2.591911
