19
Iteration:   998
 C         0.007640         0.271720        -0.259374
 C         1.344538        -0.042530         0.155446
 C         2.125911         0.698674         1.271556
 C         3.348641         0.550095         0.407060
 C         3.276248        -0.800355        -0.312906
 O         4.348014        -1.469502        -0.818054
 C         1.991155        -1.476714         0.123995
 C         2.568836         0.368241        -0.842983
 O         2.486499         0.832688        -2.222080
 H        -0.691952         0.165155         0.503932
 H        -0.225396         1.274659        -0.669182
 H        -0.299557        -0.419649        -1.109575
 H         1.978508         1.845198         1.402079
 H         2.123234         0.350819         2.302720
 H         4.313870         0.820217         0.578593
 H         4.511705        -2.315462        -0.396684
 H         1.555408        -2.055005        -0.712795
 H         2.081548        -2.050425         1.109008
 H         2.078592         1.771073        -2.191061
