19
Iteration:  2079charge 0 multiplicity 1
 C        -0.069498         0.329273        -0.214545
 C         1.326198        -0.034535         0.027186
 C         2.033974         0.540016         1.292283
 C         3.374666         0.490061         0.519814
 C         3.243351        -0.794545        -0.324292
 O         4.387423        -1.469841        -0.762083
 C         1.955704        -1.531229        -0.007834
 C         2.548102         0.385831        -0.863911
 O         2.645449         1.058125        -2.122301
 H        -0.744883         0.155165         0.686528
 H        -0.051483         1.387654        -0.290033
 H        -0.507362        -0.173165        -1.088192
 H         1.648568         1.579713         1.531954
 H         1.951587        -0.180199         2.129234
 H         4.385788         1.019927         0.705783
 H         4.103471        -1.959430        -1.456435
 H         1.665223        -2.127540        -0.865465
 H         1.686459        -2.013646         0.969057
 H         3.124625         0.320696        -2.618144
