19
Iteration:  2866
 C        -0.193815         0.284341        -0.194778
 C         1.316207         0.023485         0.074649
 C         2.139336         0.569395         1.295428
 C         3.350749         0.520623         0.374270
 C         3.234396        -0.825602        -0.320782
 O         4.402188        -1.478787        -0.685796
 C         1.857585        -1.455444        -0.014500
 C         2.581757         0.360108        -0.886540
 O         2.793861         0.916342        -2.128231
 H        -0.789790        -0.243494         0.515505
 H        -0.536296         1.328393        -0.185836
 H        -0.403983        -0.231995        -1.076777
 H         1.723051         1.592713         1.537357
 H         2.020094        -0.023356         2.288101
 H         4.390616         0.977430         0.432111
 H         4.115473        -1.880145        -1.438192
 H         1.424240        -1.803035        -0.929777
 H         1.720773        -2.222030         0.776325
 H         2.512423         1.810588        -2.128367
