19
Iteration:   708charge 0 multiplicity 1
 C        -0.231456         0.096478        -0.015627
 C         1.326032         0.070301         0.078924
 C         2.133644         0.751458         1.173905
 C         3.411866         0.609906         0.309622
 C         3.305151        -0.831175        -0.232262
 O         4.242070        -1.563608        -0.873667
 C         1.848149        -1.429120         0.152629
 C         2.556763         0.286383        -0.931600
 O         2.823600         1.012612        -2.173105
 H        -0.671372        -0.665974         0.745887
 H        -0.659426         1.098828         0.086806
 H        -0.566935        -0.303680        -0.924919
 H         1.904204         1.743486         1.272195
 H         1.950914         0.218283         2.119843
 H         4.321263         1.166580         0.199657
 H         4.933505        -1.585817        -0.150509
 H         1.522238        -2.094558        -0.700428
 H         1.596304        -1.751442         1.194247
 H         3.153618         0.376226        -2.834536
