19
Iteration:  3578
 C        -0.147295         0.288787        -0.209205
 C         1.369154        -0.028033         0.013165
 C         2.121116         0.541664         1.195247
 C         3.434907         0.463759         0.359170
 C         3.208006        -0.928602        -0.395533
 O         4.432510        -1.601081        -0.477614
 C         1.855155        -1.436719         0.021288
 C         2.631628         0.429299        -0.913896
 O         2.555167         1.142210        -2.163951
 H        -0.680697        -0.300232         0.483652
 H        -0.353699         1.366193         0.010665
 H        -0.341413         0.177577        -1.364497
 H         1.993107         1.654562         1.127094
 H         2.289091        -0.067198         2.128627
 H         4.501122         0.647984         0.630415
 H         4.397587        -2.069598        -1.231950
 H         1.304033        -1.954167        -0.799223
 H         1.698136        -2.041565         0.943518
 H         2.455041         1.996152        -1.806841
