19
Iteration:  4411charge 0 multiplicity 1
 C        -0.053986         0.368538        -0.205474
 C         1.346929        -0.103776        -0.023819
 C         2.091706         0.552883         1.277770
 C         3.310354         0.480229         0.445228
 C         3.282428        -0.915793        -0.399392
 O         4.465053        -1.541775        -0.563739
 C         1.900423        -1.452267         0.001638
 C         2.587715         0.421006        -0.970056
 O         2.519246         1.096593        -2.145963
 H        -0.580397         0.366810         0.679926
 H        -0.251499         1.311186        -0.835906
 H        -0.660698        -0.399562        -0.704126
 H         1.745854         1.610048         1.506321
 H         2.043687         0.210902         2.404068
 H         4.335930         0.831895         0.667297
 H         4.234484        -2.435293        -0.995224
 H         1.460689        -2.156409        -0.770043
 H         1.682723        -2.036797         0.907929
 H         3.389801         1.643379        -2.320463
