19
Iteration:   246charge 0 multiplicity 1
 C        -0.037302         0.370622        -0.397109
 C         1.394018         0.001258         0.046521
 C         2.236568         0.674476         1.157814
 C         3.447362         0.481100         0.330259
 C         3.328100        -0.881627        -0.311670
 O         4.394905        -1.651003        -0.746188
 C         1.940240        -1.404589         0.198652
 C         2.552156         0.367362        -0.858527
 O         2.246554         0.982117        -1.983976
 H        -0.711587         0.130028         0.328676
 H        -0.115151         1.450441        -0.612044
 H        -0.426215        -0.196648        -1.341190
 H         1.894329         1.698288         1.232265
 H         2.178798         0.225572         2.051690
 H         4.332883         1.123513         0.484979
 H         4.768155        -2.056248         0.032141
 H         1.350628        -2.079975        -0.467107
 H         1.891118        -1.763963         1.263549
 H         2.965975         0.894314        -2.585582
