19
Iteration:  1659charge 0 multiplicity 1
 C        -0.055526         0.066409        -0.329449
 C         1.394215         0.027433         0.117572
 C         2.117252         0.700424         1.305089
 C         3.446753         0.543818         0.431291
 C         3.218960        -0.823035        -0.323642
 O         4.308686        -1.643622        -0.682941
 C         1.919846        -1.490905        -0.000541
 C         2.611435         0.447356        -0.837217
 O         2.531855         1.060422        -2.117294
 H        -0.696999        -0.411812         0.331567
 H        -0.522214         1.158568        -0.491180
 H        -0.031170        -0.381217        -1.393929
 H         1.608831         1.699898         1.516673
 H         2.025684         0.076945         2.139097
 H         4.451026         0.680981         0.554166
 H         4.771068        -1.280535        -1.579777
 H         1.368904        -1.939579        -0.840475
 H         1.700253        -1.953116         0.975380
 H         2.774457         2.048805        -2.061286
