19
Iteration:  1080charge 0 multiplicity 1
 C        -0.178409         0.039475        -0.093785
 C         1.330132        -0.071250         0.021894
 C         2.106937         0.825445         1.156329
 C         3.334063         0.632915         0.312332
 C         3.227759        -0.903632        -0.392125
 O         4.416982        -1.543069        -0.698127
 C         1.992643        -1.474584         0.202356
 C         2.591960         0.371179        -0.940543
 O         2.680209         1.143992        -2.096195
 H        -0.847827        -0.556063         0.651627
 H        -0.343940         1.115959         0.015327
 H        -0.542993        -0.191854        -1.085324
 H         1.839230         1.851261         1.115261
 H         2.145581         0.442436         2.186623
 H         4.424170         0.893468         0.397850
 H         4.057873        -2.469060        -0.926939
 H         1.476758        -2.194556        -0.529271
 H         1.899939        -2.015623         1.175000
 H         2.220553         0.519396        -2.792129
