19
Iteration:  3416charge 0 multiplicity 1
 C        -0.176935         0.310419        -0.133963
 C         1.337493         0.025680         0.036581
 C         2.041976         0.622055         1.273191
 C         3.389962         0.518424         0.479380
 C         3.217609        -0.864984        -0.315673
 O         4.356750        -1.473666        -0.715437
 C         1.879153        -1.454892        -0.041904
 C         2.610006         0.339173        -0.898581
 O         2.762586         0.837783        -2.163916
 H        -0.849098        -0.386968         0.449012
 H        -0.440228         1.359139         0.091035
 H        -0.418521         0.270982        -1.154912
 H         1.847287         1.785141         1.423262
 H         2.099462        -0.022376         2.228727
 H         4.351319         0.950717         0.826450
 H         4.493003        -1.405221        -1.617309
 H         1.480252        -1.925430        -0.998211
 H         1.869937        -2.180841         0.789016
 H         2.805391         1.799602        -2.059086
