19
Iteration:  3165charge 0 multiplicity 1
 C        -0.073110         0.327963        -0.297700
 C         1.312001        -0.132441         0.050964
 C         2.027878         0.696094         1.136937
 C         3.331823         0.492227         0.381674
 C         3.298770        -0.870104        -0.364796
 O         4.400162        -1.582320        -0.762506
 C         1.950395        -1.504884         0.189252
 C         2.527124         0.312986        -0.871895
 O         2.690696         1.061511        -1.971015
 H        -1.016908        -0.067745         0.313780
 H        -0.008675         1.493750        -0.322797
 H        -0.406605        -0.006135        -1.373487
 H         1.740383         1.741490         1.194462
 H         1.865466         0.475650         2.165909
 H         4.103260         1.283728         0.311406
 H         4.190490        -2.266852        -1.423861
 H         1.462736        -2.199696        -0.579084
 H         2.060035        -1.990979         1.159667
 H         2.799604         2.028742        -1.702372
