19
Iteration:  1621
 C        -0.180901         0.177926        -0.209598
 C         1.304787        -0.051434         0.035616
 C         1.987413         0.724430         1.147804
 C         3.369269         0.544044         0.351524
 C         3.310189        -0.922462        -0.334338
 O         4.390576        -1.629690        -0.844240
 C         1.956902        -1.487153         0.159365
 C         2.565848         0.343387        -0.914718
 O         2.655933         1.160337        -2.029970
 H        -0.885733        -0.663778         0.301256
 H        -0.380285         1.181074         0.152052
 H        -0.502575         0.029963        -1.262837
 H         1.768136         1.768119         1.132089
 H         1.867363         0.290626         2.222274
 H         4.481186         0.936034         0.327043
 H         5.141566        -1.737911        -0.056729
 H         1.549513        -2.292505        -0.476051
 H         2.148504        -1.912406         1.157857
 H         3.037417         1.993754        -1.653832
