19
Iteration:  4166charge 0 multiplicity 1
 C        -0.001778         0.262497        -0.324947
 C         1.387730         0.038373         0.055063
 C         1.970147         0.763318         1.252400
 C         3.329139         0.493977         0.447395
 C         3.205746        -0.946305        -0.422484
 O         4.373652        -1.663505        -0.738730
 C         1.940264        -1.525488         0.130159
 C         2.631094         0.323771        -0.867696
 O         2.585429         1.088874        -2.029525
 H        -0.726467         0.033631         0.446203
 H        -0.256987         1.403364        -0.500778
 H        -0.265935        -0.351635        -1.254510
 H         1.667543         1.722871         1.007997
 H         1.929337         0.484501         2.261957
 H         4.382776         0.893689         0.585784
 H         4.592793        -1.506657        -1.602223
 H         1.381460        -2.219568        -0.485008
 H         2.079211        -2.023925         1.097314
 H         3.055604         1.857806        -1.803382
