19
Iteration:   606charge 0 multiplicity 1
 C         0.067232         0.362632        -0.255021
 C         1.381869        -0.033769         0.110672
 C         2.105025         0.715040         1.299151
 C         3.377261         0.491279         0.398115
 C         3.211015        -0.844833        -0.363901
 O         4.355862        -1.553015        -0.807779
 C         1.925353        -1.484021         0.195697
 C         2.530137         0.387263        -0.885149
 O         2.449294         0.962252        -2.160963
 H        -0.696293         0.369761         0.423655
 H         0.037026         1.300729        -0.891477
 H        -0.161423        -0.493063        -1.021606
 H         1.868121         1.746487         1.244442
 H         2.167332         0.307058         2.289831
 H         4.410925         0.778437         0.529004
 H         4.951372        -1.500739        -0.128407
 H         1.465003        -2.385119        -0.373590
 H         2.143655        -2.037574         1.064173
 H         2.481705         0.278175        -2.937094
