19
Iteration:  4729charge 0 multiplicity 1
 C        -0.128691         0.237071        -0.163058
 C         1.340645        -0.064710        -0.031875
 C         2.126825         0.594604         1.219642
 C         3.421272         0.560495         0.409351
 C         3.215145        -0.851363        -0.332807
 O         4.347962        -1.612155        -0.512687
 C         1.842990        -1.478447        -0.111560
 C         2.642760         0.436186        -0.889698
 O         2.619464         1.126633        -2.080171
 H        -0.799135        -0.470958         0.455883
 H        -0.509270         1.345119         0.036170
 H        -0.374216         0.252125        -1.319137
 H         1.783480         1.640769         1.253613
 H         2.186278         0.054831         2.116989
 H         4.482451         0.871738         0.527862
 H         4.401276        -2.182475        -1.279413
 H         1.491828        -1.933698        -1.092555
 H         1.623702        -2.074344         0.792869
 H         3.437106         1.094187        -2.498598
