19
Iteration:   276charge 0 multiplicity 1
 C         0.036124         0.231845        -0.235231
 C         1.427527        -0.013502         0.115972
 C         2.215536         0.865427         1.269969
 C         3.365900         0.589538         0.399583
 C         3.200835        -0.894351        -0.345017
 O         4.285551        -1.603031        -0.786324
 C         1.892805        -1.528626         0.152986
 C         2.583003         0.362784        -0.910305
 O         2.451513         0.962559        -2.198948
 H        -0.659035        -0.476926         0.253005
 H        -0.243903         1.207409         0.176346
 H        -0.225513         0.244236        -1.358092
 H         1.813097         1.837991         1.323663
 H         2.180499         0.289278         2.273739
 H         4.304996         1.014395         0.622512
 H         4.675101        -1.988623        -0.085288
 H         1.210945        -2.090405        -0.595049
 H         1.814693        -2.043414         1.055444
 H         3.401721         0.926600        -2.590025
