19
Iteration:  1956charge 0 multiplicity 1
 C        -0.145251         0.197767        -0.319849
 C         1.298694        -0.006113         0.091541
 C         2.113358         0.568976         1.239279
 C         3.350395         0.435801         0.397383
 C         3.202884        -0.923667        -0.392278
 O         4.414876        -1.368608        -0.755153
 C         1.858395        -1.495983         0.185463
 C         2.589380         0.372608        -0.891375
 O         2.686832         1.113322        -2.054224
 H        -0.687515        -0.152987         0.512675
 H        -0.469144         1.294290        -0.677838
 H        -0.367131        -0.412169        -1.154324
 H         1.932134         1.711709         1.410457
 H         2.080267         0.023693         2.233811
 H         4.388547         0.821047         0.668767
 H         4.342400        -2.211070        -1.487986
 H         1.380720        -2.188446        -0.557982
 H         1.768988        -2.031601         1.155657
 H         3.523600         1.477684        -2.177051
