19
Iteration:  1065
 C        -0.096396         0.117169        -0.086932
 C         1.361041        -0.053202         0.108199
 C         2.074781         0.776733         1.108601
 C         3.329607         0.479157         0.275610
 C         3.222212        -0.859007        -0.379472
 O         4.428862        -1.558111        -0.675095
 C         1.973538        -1.486469         0.174477
 C         2.507356         0.353778        -0.995349
 O         2.622461         1.195298        -2.096629
 H        -0.473408        -0.538481         0.617204
 H        -0.532891         1.122932         0.125352
 H        -0.421069        -0.335005        -1.096266
 H         1.707768         1.914682         1.029614
 H         1.927627         0.567889         2.165617
 H         4.267680         1.076328         0.370318
 H         4.361747        -2.645732        -0.574001
 H         1.437133        -2.271091        -0.421520
 H         2.212319        -1.749408         1.233856
 H         2.963120         0.766604        -2.870108
