19
Iteration:   259
 C        -0.063496         0.343520        -0.349179
 C         1.371169         0.025127         0.127882
 C         2.179163         0.737638         1.264302
 C         3.438652         0.565694         0.338323
 C         3.266660        -0.889503        -0.315663
 O         4.360087        -1.660104        -0.755422
 C         1.972575        -1.456958         0.160818
 C         2.590218         0.325388        -0.885951
 O         2.314373         0.990072        -2.093233
 H        -0.828618        -0.183533         0.221214
 H        -0.325806         1.422296        -0.365638
 H        -0.064266        -0.027825        -1.368247
 H         1.961933         1.860145         1.347157
 H         2.217584         0.334899         2.262474
 H         4.536355         0.837606         0.256987
 H         4.717178        -2.153271         0.034461
 H         1.590937        -2.080144        -0.628507
 H         1.962670        -2.053838         1.160515
 H         3.102640         0.983104        -2.732619
