19
Iteration:  3726
 C        -0.144678         0.327968        -0.148206
 C         1.338334        -0.006758         0.032806
 C         2.072089         0.607042         1.211311
 C         3.323839         0.442403         0.454217
 C         3.216811        -0.895641        -0.295498
 O         4.445853        -1.503692        -0.655829
 C         1.867483        -1.540690         0.004468
 C         2.605065         0.395599        -0.920500
 O         2.700940         1.033885        -2.189103
 H        -0.792194        -0.254897         0.479027
 H        -0.154055         1.456640        -0.096054
 H        -0.507819        -0.017936        -1.076359
 H         1.848444         1.663915         1.331552
 H         2.020823         0.049329         2.143414
 H         4.322532         0.836994         0.744076
 H         4.300055        -2.145236        -1.438938
 H         1.444825        -2.102719        -0.802972
 H         1.854463        -1.961498         1.003593
 H         2.708042         2.061459        -2.135589
