19
Iteration:  2941
 C        -0.089696         0.324861        -0.320070
 C         1.259092        -0.078009         0.148185
 C         2.134415         0.675699         1.182681
 C         3.374232         0.468304         0.301940
 C         3.198458        -0.985346        -0.387435
 O         4.478434        -1.464299        -0.692040
 C         1.787236        -1.545095         0.178252
 C         2.608911         0.242004        -0.910277
 O         2.670947         1.112629        -2.012638
 H        -0.895846         0.122512         0.503468
 H        -0.126576         1.342364        -0.658808
 H        -0.328989        -0.405985        -1.075097
 H         1.827197         1.790201         1.021805
 H         2.080711         0.250033         2.266624
 H         4.366696         1.046087         0.350275
 H         4.579875        -1.543610        -1.741058
 H         1.279233        -2.214397        -0.514858
 H         1.796138        -2.025483         1.183610
 H         2.500624         2.060060        -1.678860
