19
Iteration:  1016
 C        -0.055498         0.159215        -0.203312
 C         1.431354         0.025603         0.087859
 C         2.116997         0.760685         1.241473
 C         3.399202         0.592303         0.407926
 C         3.259216        -0.810708        -0.370073
 O         4.420047        -1.550738        -0.753315
 C         1.929587        -1.498203         0.128693
 C         2.571931         0.332694        -0.907012
 O         2.429283         0.927659        -2.172820
 H        -0.800236        -0.058499         0.669797
 H        -0.128914         1.208866        -0.455834
 H        -0.336792        -0.393144        -1.051487
 H         1.687545         1.721964         1.299641
 H         2.044431         0.349725         2.327704
 H         4.422434         1.079679         0.407954
 H         4.242659        -2.413739        -0.436561
 H         1.517217        -2.003658        -0.727671
 H         1.776148        -2.063525         1.023456
 H         2.887572         1.830790        -2.175827
