19
Iteration:   198charge 0 multiplicity 1
 C        -0.077620         0.313998        -0.223558
 C         1.324495        -0.043863         0.113446
 C         2.162552         0.760038         1.196802
 C         3.429540         0.535809         0.378182
 C         3.231338        -0.841672        -0.363146
 O         4.346491        -1.559572        -0.843771
 C         1.897667        -1.503861         0.159738
 C         2.532501         0.302381        -0.862270
 O         2.524031         0.926591        -2.092877
 H        -0.640604         0.725000         0.742278
 H        -0.082567         1.089886        -1.000432
 H        -0.682198        -0.521166        -0.565702
 H         1.933218         1.801014         1.218595
 H         2.054849         0.424545         2.282193
 H         4.419375         0.940363         0.121789
 H         4.948808        -1.568902         0.088754
 H         1.568785        -2.133939        -0.723155
 H         1.823418        -1.969744         1.120836
 H         3.447593         1.090423        -2.399627
