19
Iteration:  3049
 C        -0.185880         0.382075        -0.154685
 C         1.267427        -0.001941         0.065899
 C         2.032809         0.652068         1.258444
 C         3.294116         0.443949         0.456817
 C         3.194045        -0.936508        -0.382681
 O         4.447542        -1.335228        -0.820504
 C         1.852099        -1.568719         0.115891
 C         2.603861         0.296482        -0.894651
 O         2.922707         0.887718        -2.122915
 H        -0.956889        -0.123910         0.586886
 H        -0.387832         1.458561        -0.100013
 H        -0.541987        -0.041795        -1.173164
 H         1.733159         1.699794         1.381310
 H         1.946325         0.371473         2.274051
 H         4.261719         0.982142         0.518193
 H         4.444384        -1.863730        -1.716060
 H         1.306527        -2.275912        -0.537919
 H         1.930408        -1.991355         1.165541
 H         2.389398         1.761824        -2.190386
