19
Iteration:  4022charge 0 multiplicity 1
 C        -0.096385         0.266455        -0.313541
 C         1.306859        -0.012371         0.055428
 C         2.083203         0.595218         1.244518
 C         3.401450         0.440445         0.405338
 C         3.215853        -0.884146        -0.394010
 O         4.414104        -1.552673        -0.617462
 C         1.862608        -1.474460         0.107361
 C         2.574291         0.420643        -0.914726
 O         2.627922         1.041277        -2.099982
 H        -0.635913         0.409527         0.659205
 H        -0.197874         1.406376        -0.690798
 H        -0.437878        -0.340352        -1.192765
 H         1.874139         1.650175         1.281044
 H         2.156581         0.107366         2.200874
 H         4.430620         0.790199         0.574971
 H         4.487335        -1.845266        -1.502901
 H         1.555156        -2.273173        -0.566283
 H         2.029006        -1.898908         1.120104
 H         2.625512         1.979765        -1.989067
