19
Iteration:  3871charge 0 multiplicity 1
 C        -0.167132         0.288450        -0.172841
 C         1.282874         0.061114         0.028700
 C         2.063863         0.626461         1.295684
 C         3.289649         0.555913         0.517721
 C         3.226420        -0.828127        -0.304980
 O         4.407721        -1.497651        -0.820432
 C         1.844169        -1.401685         0.001353
 C         2.671933         0.379031        -0.848653
 O         2.862535         0.768212        -2.168508
 H        -0.701114        -0.122975         0.838104
 H        -0.377530         1.334058        -0.223793
 H        -0.669243        -0.255387        -0.979424
 H         1.602508         1.612843         1.772901
 H         1.855732        -0.031318         2.205251
 H         4.242464         0.974918         0.910308
 H         4.276940        -1.552256        -1.871437
 H         1.655447        -2.032347        -0.885083
 H         1.528392        -1.997703         0.890285
 H         2.472115         1.592153        -2.345160
