19
Iteration:  3738
 C        -0.170893         0.297368        -0.231571
 C         1.310534         0.036522        -0.008216
 C         2.119366         0.607181         1.280501
 C         3.384495         0.382365         0.395423
 C         3.238710        -0.894678        -0.383071
 O         4.467572        -1.513985        -0.573595
 C         1.895341        -1.472661         0.032104
 C         2.592237         0.412454        -0.951278
 O         2.615840         1.059532        -2.153732
 H        -0.717962        -0.123197         0.687542
 H        -0.596367         1.335059        -0.055640
 H        -0.446504         0.095256        -1.206873
 H         1.939609         1.606536         1.500556
 H         1.997690        -0.021095         2.136133
 H         4.422682         0.635016         0.590164
 H         4.166081        -2.321489        -1.188645
 H         1.468361        -2.126995        -0.712321
 H         1.807335        -2.118405         0.930586
 H         2.927705         1.921361        -1.957253
