19
Iteration:  4697charge 0 multiplicity 1
 C        -0.130225         0.282413        -0.236149
 C         1.332253         0.016067        -0.017690
 C         1.980379         0.624221         1.274975
 C         3.316532         0.477744         0.469054
 C         3.266967        -0.925199        -0.409441
 O         4.433583        -1.583868        -0.699042
 C         1.885660        -1.444823         0.072742
 C         2.618160         0.344476        -0.906373
 O         2.694156         1.184033        -2.033379
 H        -0.857085         0.018366         0.531355
 H        -0.266539         1.425169        -0.428366
 H        -0.206238        -0.289419        -1.240110
 H         1.672341         1.612191         1.430470
 H         2.005820         0.221507         2.234920
 H         4.362854         0.743012         0.716422
 H         4.279650        -2.310060        -1.364988
 H         1.533780        -2.128795        -0.723524
 H         1.912865        -1.922107         1.099581
 H         3.019959         0.569573        -2.799860
