19
Iteration:  2103charge 0 multiplicity 1
 C        -0.157786         0.237837        -0.234233
 C         1.359603         0.031776        -0.028627
 C         2.022410         0.646733         1.281269
 C         3.383519         0.480586         0.648151
 C         3.255476        -0.837371        -0.270944
 O         4.386492        -1.475183        -0.957014
 C         1.917973        -1.467727        -0.070646
 C         2.695699         0.453243        -0.762590
 O         2.602412         0.939788        -2.070403
 H        -0.727528         0.269096         0.815233
 H        -0.318640         1.212697        -0.547172
 H        -0.661301        -0.542522        -0.884134
 H         1.820787         1.739869         1.379392
 H         1.921464         0.016320         2.215347
 H         4.329252         1.080418         0.905262
 H         4.267902        -2.512137        -0.924986
 H         1.469419        -1.894430        -0.957284
 H         1.592054        -2.008346         0.847892
 H         3.499101         0.702403        -2.467769
