19
Iteration:   359charge 0 multiplicity 1
 C        -0.167107         0.246290        -0.102728
 C         1.316478         0.006095         0.094651
 C         2.159193         0.735542         1.308553
 C         3.371893         0.588167         0.335642
 C         3.232731        -0.843790        -0.258605
 O         4.215841        -1.444106        -0.917663
 C         1.890291        -1.497442         0.125718
 C         2.559070         0.388605        -0.893641
 O         2.856455         0.825614        -2.186408
 H        -0.627897        -0.204239         0.857210
 H        -0.431383         1.303948        -0.188661
 H        -0.553952        -0.284428        -0.895430
 H         1.755173         1.807928         1.348859
 H         2.097635         0.382959         2.246469
 H         4.310032         1.079422         0.352131
 H         4.816652        -1.767421        -0.301196
 H         1.629487        -2.078087        -0.709387
 H         1.769261        -2.017081         1.170046
 H         2.466351         0.225295        -2.844056
