19
Iteration:   237
 C         0.001986         0.357187        -0.386890
 C         1.406873        -0.004907        -0.001109
 C         2.192303         0.697126         1.179765
 C         3.477719         0.517041         0.362271
 C         3.261267        -0.940547        -0.332124
 O         4.415643        -1.632490        -0.753569
 C         1.895320        -1.436747         0.221494
 C         2.570093         0.309410        -0.871117
 O         2.221821         1.025274        -2.012307
 H        -0.663500         0.404094         0.472015
 H         0.109687         1.399612        -0.760703
 H        -0.414714        -0.230715        -1.201310
 H         2.074146         1.846402         1.343642
 H         2.057662         0.203894         2.161557
 H         4.409038         1.130492         0.580517
 H         4.839540        -1.923173         0.018080
 H         1.619650        -2.202610        -0.458450
 H         1.879050        -1.807131         1.329310
 H         2.944112         0.936811        -2.606080
