19
Iteration:  1811charge 0 multiplicity 1
 C        -0.162871         0.184397        -0.251926
 C         1.350335        -0.073858        -0.006973
 C         2.023345         0.739857         1.145073
 C         3.341137         0.522470         0.426894
 C         3.317868        -0.915092        -0.263294
 O         4.317800        -1.719348        -0.760989
 C         2.001660        -1.548290         0.093594
 C         2.594779         0.400399        -0.888486
 O         2.705521         1.196907        -2.003716
 H        -0.692403        -0.511916         0.301967
 H        -0.519657         1.261628        -0.041253
 H        -0.471174         0.061499        -1.332768
 H         1.781640         1.826439         1.023483
 H         1.962306         0.681957         2.245972
 H         4.178929         1.073713         0.698271
 H         4.511143        -1.473629        -1.806665
 H         1.613218        -2.398709        -0.500912
 H         2.036226        -1.989025         1.103828
 H         2.372798         2.128362        -1.816079
