19
Iteration:  4139charge 0 multiplicity 1
 C        -0.131343         0.204896        -0.350866
 C         1.308288        -0.060414         0.058570
 C         2.090303         0.723840         1.285368
 C         3.390642         0.554012         0.428785
 C         3.232051        -0.860675        -0.236844
 O         4.286677        -1.589111        -0.856071
 C         1.892259        -1.469025         0.123750
 C         2.574416         0.324167        -0.835158
 O         2.769383         0.955329        -2.086279
 H        -0.951679        -0.165913         0.315179
 H        -0.329647         1.212581        -0.142321
 H        -0.320628         0.153441        -1.403457
 H         1.664172         1.900445         1.171940
 H         2.181779         0.427973         2.493896
 H         4.346202         1.029825         0.510963
 H         4.526504        -1.038907        -1.542823
 H         1.559188        -2.220889        -0.626652
 H         1.862452        -1.952999         1.121617
 H         3.021455         1.808098        -1.809019
