19
Iteration:  2322
 C        -0.074418         0.167483        -0.286724
 C         1.370794        -0.003178         0.069466
 C         2.036758         0.536867         1.309502
 C         3.413085         0.496468         0.524131
 C         3.175422        -0.807229        -0.360697
 O         4.293919        -1.497551        -0.790189
 C         1.846704        -1.441828         0.023699
 C         2.605885         0.476027        -0.848581
 O         2.814209         0.963864        -2.105441
 H        -0.696638         0.286636         0.662727
 H        -0.298243         0.967199        -0.927954
 H        -0.452677        -0.710840        -0.851978
 H         1.670703         1.524827         1.619189
 H         1.890347        -0.003808         2.202841
 H         4.392842         0.734336         0.816390
 H         4.694239        -1.035094        -1.445456
 H         1.356532        -1.906997        -0.844211
 H         1.825203        -2.029316         0.963856
 H         2.141089         1.644805        -2.337572
