19
Iteration:  1806charge 0 multiplicity 1
 C        -0.157739         0.175357        -0.262142
 C         1.358174        -0.061890         0.008792
 C         2.018501         0.747178         1.160818
 C         3.350818         0.527022         0.421647
 C         3.295871        -0.909366        -0.291932
 O         4.299851        -1.729230        -0.757709
 C         1.983540        -1.534713         0.078145
 C         2.605377         0.410933        -0.855404
 O         2.721982         1.201373        -2.040931
 H        -0.761565        -0.609364         0.398517
 H        -0.475724         1.139407         0.001940
 H        -0.472023        -0.088201        -1.269672
 H         1.807548         1.813066         1.090455
 H         1.901400         0.444794         2.295430
 H         4.346498         1.089885         0.672887
 H         4.504013        -1.352246        -1.542888
 H         1.722566        -2.397501        -0.604102
 H         2.042900        -1.860540         1.184997
 H         2.320567         2.035115        -1.873159
