19
Iteration:  4616charge 0 multiplicity 1
 C        -0.093684         0.286647        -0.321265
 C         1.336318        -0.041333         0.046942
 C         1.975346         0.621067         1.276082
 C         3.353271         0.485575         0.515564
 C         3.272229        -0.845974        -0.344306
 O         4.277327        -1.622334        -0.734247
 C         1.957445        -1.478132         0.050355
 C         2.647995         0.365154        -0.859767
 O         2.718620         1.159208        -2.087597
 H        -0.692736         0.102640         0.701265
 H        -0.174306         1.296684        -0.798898
 H        -0.609954        -0.427637        -0.999244
 H         1.811809         1.742670         1.276124
 H         1.860115         0.086060         2.171954
 H         4.365663         0.765993         0.758445
 H         4.868621        -1.056067        -1.260957
 H         1.379000        -2.157088        -0.636646
 H         2.085754        -2.007729         0.994153
 H         2.520132         0.382812        -2.718946
