19
Iteration:  4387
 C        -0.157226         0.355790        -0.252863
 C         1.357027        -0.014647         0.002815
 C         2.103140         0.623735         1.207702
 C         3.417185         0.469979         0.399347
 C         3.262671        -0.940492        -0.340284
 O         4.457922        -1.480619        -0.619304
 C         1.877845        -1.512015         0.045018
 C         2.552112         0.365507        -0.905237
 O         2.589773         1.043588        -2.105265
 H        -0.870079         0.146282         0.438508
 H        -0.324884         1.319868        -0.720528
 H        -0.435731        -0.327224        -1.041804
 H         1.952037         1.639888         1.724560
 H         2.045050         0.020617         2.231390
 H         4.483448         0.727363         0.425191
 H         4.260635        -2.366368        -1.134485
 H         1.271447        -2.141023        -0.689175
 H         1.781162        -2.086386         0.972497
 H         2.860537         1.919090        -1.795060
