19
Iteration:  2714
 C        -0.042285         0.394430        -0.169312
 C         1.343797        -0.123212         0.083721
 C         1.990663         0.655050         1.187127
 C         3.306034         0.564852         0.420547
 C         3.247849        -0.873075        -0.368290
 O         4.444447        -1.534891        -0.632259
 C         1.907444        -1.644871         0.001033
 C         2.508991         0.313293        -0.890682
 O         2.670834         1.066457        -2.105603
 H        -0.634840         0.354820         0.756780
 H         0.089540         1.495106        -0.563753
 H        -0.532504        -0.085780        -1.091751
 H         1.656642         1.610016         1.266108
 H         1.957142         0.058731         2.069673
 H         4.307221         0.858949         0.347091
 H         4.437426        -1.597734        -1.616219
 H         1.538364        -2.267730        -0.805715
 H         1.959636        -2.290575         0.936029
 H         2.962729         1.946294        -1.958868
