19
Iteration:   310charge 0 multiplicity 1
 C        -0.309306         0.230092        -0.073837
 C         1.297066         0.064130         0.031342
 C         2.171422         0.832796         1.164506
 C         3.399868         0.487872         0.455838
 C         3.280960        -0.857338        -0.260708
 O         4.318804        -1.514848        -0.961258
 C         1.916840        -1.433904         0.205236
 C         2.545867         0.303571        -0.907047
 O         2.729321         0.857182        -2.181274
 H        -0.740094        -0.581523         0.435779
 H        -0.562408         1.127003         0.510977
 H        -0.779425         0.335914        -1.156735
 H         2.085645         1.862789         1.367201
 H         2.148585         0.287568         2.210399
 H         4.345675         1.049901         0.499908
 H         5.012313        -1.831582        -0.349952
 H         1.347215        -2.008465        -0.600180
 H         1.797907        -1.842269         1.144238
 H         3.672586         0.626091        -2.483551
