19
Iteration:   193
 C        -0.166342         0.318536        -0.199634
 C         1.343043        -0.027714         0.081276
 C         2.159248         0.749133         1.207962
 C         3.444852         0.522057         0.349811
 C         3.265065        -0.834775        -0.319139
 O         4.353413        -1.548116        -0.861052
 C         1.877213        -1.480670         0.156359
 C         2.567252         0.307745        -0.872650
 O         2.567385         0.898680        -2.080913
 H        -0.646220         0.647385         0.731197
 H        -0.326158         1.095366        -0.977428
 H        -0.736426        -0.599068        -0.473454
 H         1.766343         1.854937         1.277542
 H         2.033381         0.325989         2.271168
 H         4.410736         0.981203         0.082567
 H         4.866705        -1.629709        -0.136042
 H         1.543175        -2.075883        -0.665325
 H         1.758236        -1.926725         1.201424
 H         3.443732         1.090058        -2.398826
