19
Iteration:  3415
 C        -0.168229         0.310575        -0.132656
 C         1.333771         0.019796         0.042543
 C         2.045766         0.628117         1.272665
 C         3.388395         0.514626         0.470730
 C         3.207584        -0.864022        -0.315703
 O         4.359170        -1.466347        -0.708919
 C         1.878622        -1.461931        -0.041797
 C         2.599792         0.335019        -0.899437
 O         2.766789         0.842375        -2.166295
 H        -0.827768        -0.376328         0.466198
 H        -0.431521         1.366791         0.117676
 H        -0.380143         0.285445        -1.208661
 H         1.870723         1.733726         1.385703
 H         2.120254        -0.010393         2.206929
 H         4.322970         0.936006         0.836727
 H         4.478002        -1.426325        -1.599411
 H         1.471326        -1.921563        -0.977320
 H         1.871087        -2.205529         0.762371
 H         2.800332         1.837053        -2.045934
