19
Iteration:  1538charge 0 multiplicity 1
 C        -0.106479         0.227336        -0.202767
 C         1.380719        -0.013619         0.047900
 C         2.026936         0.592117         1.293817
 C         3.354518         0.578233         0.499770
 C         3.273539        -0.756048        -0.280917
 O         4.298383        -1.473917        -0.833501
 C         1.967605        -1.449511         0.022571
 C         2.549337         0.411054        -0.807002
 O         2.676816         0.766637        -2.180545
 H        -0.635819         0.083386         0.634676
 H        -0.377576         1.261589        -0.561591
 H        -0.458000        -0.372530        -1.066090
 H         1.697169         1.619215         1.705445
 H         2.237360        -0.038177         2.104694
 H         4.344813         1.053158         0.817985
 H         5.130357        -0.842996        -1.186401
 H         1.653116        -1.901670        -0.956875
 H         1.859441        -2.222861         0.817849
 H         2.325279         1.622561        -2.271128
