19
Iteration:  3650
 C        -0.075662         0.223171        -0.318437
 C         1.379151         0.073731         0.073561
 C         2.041313         0.663056         1.362067
 C         3.329226         0.448650         0.531148
 C         3.140776        -0.838186        -0.319740
 O         4.254899        -1.397645        -0.956701
 C         1.852410        -1.485191         0.148931
 C         2.620918         0.452194        -0.819355
 O         2.863207         0.770747        -2.094919
 H        -0.641971        -0.160655         0.740961
 H        -0.531414         1.230213        -0.662008
 H        -0.332213        -0.491301        -1.069386
 H         1.821164         1.693537         1.460853
 H         1.848287         0.020552         2.161111
 H         4.358879         0.905994         0.720886
 H         4.234979        -1.075962        -1.794269
 H         1.609476        -2.032266        -0.748762
 H         1.803595        -2.094256         1.094006
 H         3.220176         1.611142        -2.278932
