19
Iteration:   947
 C        -0.034020         0.311579        -0.174866
 C         1.359060        -0.058060         0.143060
 C         2.073952         0.765291         1.242772
 C         3.404961         0.511569         0.427317
 C         3.224296        -0.881240        -0.296320
 O         4.322995        -1.443761        -0.914602
 C         1.926079        -1.531517         0.188157
 C         2.504326         0.327289        -0.851441
 O         2.695686         0.838201        -2.206306
 H        -0.752268        -0.023506         0.581838
 H        -0.179134         1.431216        -0.315221
 H        -0.441455        -0.158624        -1.134652
 H         1.575771         1.724343         1.326721
 H         1.941288         0.335871         2.237033
 H         4.328165         1.078271         0.623750
 H         5.268729        -0.972820        -0.614415
 H         1.459272        -2.103111        -0.683276
 H         1.892518        -2.093496         1.116475
 H         1.844339         1.152544        -2.658284
