19
Iteration:  3306
 C        -0.123700         0.198561        -0.385539
 C         1.321168        -0.005251         0.049874
 C         2.157513         0.693974         1.225865
 C         3.399231         0.435982         0.420046
 C         3.239502        -0.915627        -0.357791
 O         4.365161        -1.611455        -0.777085
 C         1.832611        -1.467499         0.190809
 C         2.568619         0.384710        -0.867529
 O         2.646118         1.067077        -2.022309
 H        -0.782420         0.014922         0.466091
 H        -0.234758         1.163929        -0.876101
 H        -0.358163        -0.555095        -1.009239
 H         1.927786         1.809078         1.437866
 H         2.140800         0.401143         2.290762
 H         4.247907         1.040189         0.567930
 H         4.795977        -1.086114        -1.409912
 H         1.284396        -2.027885        -0.616125
 H         1.774087        -1.934797         1.205034
 H         3.018296         2.004838        -1.878324
