19
Iteration:  2349charge 0 multiplicity 1
 C        -0.188548         0.291217        -0.244628
 C         1.325002        -0.095777         0.049814
 C         2.058232         0.612578         1.309173
 C         3.306681         0.587628         0.455912
 C         3.287471        -0.831101        -0.275490
 O         4.385957        -1.595317        -0.768558
 C         1.933162        -1.511018        -0.055108
 C         2.579749         0.414614        -0.912318
 O         2.810011         1.032264        -2.032113
 H        -0.776644         0.231417         0.600448
 H        -0.338927         1.313179        -0.735328
 H        -0.600177        -0.331185        -1.016641
 H         1.596764         1.483212         1.824856
 H         2.251015        -0.046809         2.298161
 H         4.201517         1.227613         0.812866
 H         4.189014        -1.927637        -1.550304
 H         1.608644        -1.758280        -1.099741
 H         1.867575        -2.249012         0.752533
 H         1.993987         1.476670        -2.303713
