19
Iteration:  3885charge 0 multiplicity 1
 C        -0.146346         0.324225        -0.078059
 C         1.352916         0.042870        -0.027368
 C         1.910009         0.592839         1.248229
 C         3.377007         0.515159         0.547218
 C         3.294767        -0.833643        -0.200267
 O         4.393147        -1.495898        -0.788138
 C         1.832777        -1.419009        -0.024766
 C         2.621644         0.431382        -0.865550
 O         2.848852         0.769863        -2.230774
 H        -0.683897        -0.348026         0.890646
 H        -0.421405         1.378375        -0.001857
 H        -0.633832        -0.134935        -1.004186
 H         1.711426         1.577182         1.301579
 H         1.900656        -0.045606         2.060298
 H         4.391904         0.887014         0.776998
 H         4.302541        -1.358502        -1.670822
 H         1.371018        -1.763319        -0.979830
 H         1.657014        -2.069881         0.840246
 H         2.369445         1.671341        -2.407881
