19
Iteration:  1503charge 0 multiplicity 1
 C        -0.095473         0.311107        -0.238430
 C         1.297403        -0.077488         0.091548
 C         2.013825         0.699010         1.246682
 C         3.326386         0.463304         0.440350
 C         3.249299        -0.887809        -0.325798
 O         4.437787        -1.295390        -0.934637
 C         1.975413        -1.529372         0.177622
 C         2.521453         0.280046        -0.902736
 O         2.661206         0.874043        -2.111941
 H        -0.715461         0.092672         0.504321
 H        -0.070920         1.420598        -0.434739
 H        -0.481483        -0.318777        -1.092214
 H         1.653919         1.739719         1.395715
 H         2.109961         0.166353         2.219662
 H         4.372633         0.945921         0.611560
 H         4.933128        -1.961598        -0.210742
 H         1.414880        -2.101160        -0.626419
 H         2.052525        -2.091326         1.146065
 H         2.423126         1.771966        -1.955714
