19
Iteration:  2048
 C        -0.121998         0.337149        -0.225065
 C         1.301492        -0.052819         0.171775
 C         2.122202         0.596930         1.220260
 C         3.341859         0.499669         0.359016
 C         3.175710        -0.951921        -0.423728
 O         4.485763        -1.455865        -0.620528
 C         1.874383        -1.559109         0.031103
 C         2.532642         0.312622        -0.960780
 O         2.696696         1.148528        -2.010255
 H        -0.999925        -0.290627         0.334739
 H        -0.277590         1.356965        -0.174456
 H        -0.230982         0.265837        -1.361041
 H         1.799780         1.633507         1.529065
 H         2.211457        -0.031728         2.158133
 H         4.496192         0.597568         0.431580
 H         4.734578        -1.402334        -1.671459
 H         1.467337        -2.104468        -0.792922
 H         1.684008        -1.949237         1.024229
 H         2.221549         0.688075        -2.747125
