19
Iteration:  2746charge 0 multiplicity 1
 C        -0.157229         0.303248        -0.315856
 C         1.327878         0.008327         0.023189
 C         2.084629         0.714283         1.215764
 C         3.419295         0.403718         0.501668
 C         3.238754        -0.903952        -0.306714
 O         4.457690        -1.455213        -0.754535
 C         1.881706        -1.534935         0.051931
 C         2.584615         0.322522        -0.880038
 O         2.670127         0.999265        -2.027683
 H        -0.883659         0.065176         0.523772
 H        -0.311720         1.477309        -0.448533
 H        -0.571581        -0.334932        -1.177258
 H         1.920565         1.718667         1.423557
 H         1.901921         0.228389         2.164251
 H         4.434511         0.711927         0.530163
 H         4.280165        -1.968344        -1.577781
 H         1.444694        -2.082093        -0.767253
 H         1.859342        -2.077088         1.036774
 H         2.072086         1.826215        -1.971680
