19
Iteration:  2763charge 0 multiplicity 1
 C        -0.103906         0.208128        -0.354693
 C         1.376900         0.116606         0.056118
 C         2.067374         0.566027         1.303471
 C         3.397132         0.394830         0.533282
 C         3.200414        -0.889857        -0.415399
 O         4.366250        -1.486273        -0.762399
 C         1.890512        -1.425535         0.127471
 C         2.638403         0.509644        -0.794302
 O         2.665647         0.952965        -2.156416
 H        -0.611549        -0.285471         0.469254
 H        -0.524098         1.117084        -0.581768
 H        -0.179940        -0.316116        -1.269004
 H         1.959996         1.747336         1.361921
 H         1.909086         0.078880         2.327159
 H         4.410548         0.664861         0.888051
 H         4.139432        -2.036487        -1.616724
 H         1.410112        -2.161928        -0.574234
 H         1.883555        -1.874479         1.114680
 H         2.232890         1.873901        -2.193185
