19
Iteration:  2360charge 0 multiplicity 1
 C        -0.156308         0.326541        -0.231063
 C         1.303300        -0.059809         0.033950
 C         1.996272         0.560734         1.221573
 C         3.347102         0.528602         0.462847
 C         3.290889        -0.834646        -0.279468
 O         4.430904        -1.543027        -0.747047
 C         1.955302        -1.500774        -0.023966
 C         2.578646         0.341444        -0.848545
 O         2.761588         1.087839        -2.059922
 H        -0.716319         0.143519         0.639196
 H        -0.193878         1.404038        -0.349714
 H        -0.627844        -0.228491        -1.018722
 H         1.687001         1.608244         1.293390
 H         1.934869        -0.115628         2.167999
 H         4.355043         0.997431         0.645372
 H         4.015113        -2.185333        -1.331262
 H         1.620594        -2.016251        -0.965276
 H         1.787270        -2.265478         0.757507
 H         2.025789         1.628631        -2.250397
