19
Iteration:  1577
 C        -0.163712         0.162468        -0.173278
 C         1.322276        -0.004968         0.088361
 C         2.080516         0.678126         1.234605
 C         3.322891         0.476962         0.420498
 C         3.214558        -0.845255        -0.380429
 O         4.430822        -1.400328        -0.743372
 C         1.935723        -1.507745         0.079840
 C         2.598952         0.445271        -0.897151
 O         2.726671         0.934844        -2.138797
 H        -0.731005        -0.517562         0.670369
 H        -0.455999         1.210351        -0.049468
 H        -0.521680        -0.229163        -1.155089
 H         1.799808         1.701342         1.264828
 H         1.901958         0.215482         2.277777
 H         4.404830         0.779002         0.580405
 H         4.223529        -2.342035        -1.151691
 H         1.487603        -1.939775        -0.830894
 H         1.683828        -2.190800         0.893205
 H         2.697964         1.937663        -2.159947
