19
Iteration:  2751
 C        -0.151877         0.308564        -0.327871
 C         1.320011         0.047001         0.008093
 C         2.082647         0.688318         1.250455
 C         3.458379         0.354291         0.484455
 C         3.198369        -0.844656        -0.320578
 O         4.447922        -1.466701        -0.761112
 C         1.891824        -1.536088         0.085319
 C         2.606643         0.377041        -0.856731
 O         2.662834         0.984394        -2.053677
 H        -0.794109        -0.083512         0.440608
 H        -0.481657         1.284224        -0.486948
 H        -0.422370        -0.397479        -1.110557
 H         1.833140         1.819291         1.446740
 H         1.750754         0.112989         2.168203
 H         4.517690         0.738190         0.679651
 H         4.299778        -2.040583        -1.607737
 H         1.370260        -2.119998        -0.728192
 H         1.910988        -2.033442         1.049217
 H         2.118688         1.735660        -1.993548
