19
Iteration:  1140
 C        -0.102439         0.275047        -0.198580
 C         1.358034        -0.036097         0.084879
 C         2.088479         0.701472         1.261532
 C         3.331366         0.668076         0.483263
 C         3.202049        -0.900043        -0.348260
 O         4.383988        -1.406037        -0.823095
 C         2.030848        -1.543824         0.157985
 C         2.587399         0.355620        -0.826343
 O         2.537548         0.709443        -2.216286
 H        -0.819137        -0.034330         0.568388
 H        -0.304817         1.308616        -0.603012
 H        -0.265003        -0.338484        -1.166074
 H         1.776788         1.808702         1.276987
 H         2.133785         0.285110         2.299805
 H         4.416494         1.018483         0.687833
 H         4.773710        -0.714725        -1.350022
 H         1.546199        -2.089956        -0.603089
 H         2.073205        -2.001128         1.130102
 H         2.706160         1.675697        -2.289993
