19
Iteration:  1386charge 0 multiplicity 1
 C        -0.119660         0.238717        -0.156592
 C         1.343349        -0.111099         0.123869
 C         2.073545         0.736792         1.175085
 C         3.279100         0.548177         0.370164
 C         3.246988        -0.909839        -0.387277
 O         4.486981        -1.346303        -0.804649
 C         1.946441        -1.530717         0.163503
 C         2.548810         0.305948        -0.945916
 O         2.645820         0.944458        -2.092070
 H        -0.897558        -0.202475         0.646012
 H        -0.253723         1.341237        -0.205629
 H        -0.350602        -0.364806        -1.030699
 H         1.607674         1.793134         1.037773
 H         2.021244         0.390005         2.210611
 H         4.359735         0.881017         0.639833
 H         4.353425        -2.321001        -0.815934
 H         1.462128        -2.229311        -0.528227
 H         2.058823        -2.016170         1.110452
 H         2.433829         1.854618        -2.140909
