19
Iteration:  4833charge 0 multiplicity 1
 C        -0.100871         0.222395        -0.432203
 C         1.377691         0.073491         0.014979
 C         2.054504         0.658479         1.326384
 C         3.438213         0.481902         0.579296
 C         3.198636        -0.854891        -0.219732
 O         4.234688        -1.493178        -0.873529
 C         1.849010        -1.483756         0.039540
 C         2.691672         0.391436        -0.804634
 O         2.769964         0.881596        -2.066072
 H        -0.849859         0.185535         0.419988
 H        -0.319232         1.231107        -0.867771
 H        -0.544542        -0.551214        -1.130106
 H         1.831315         1.667303         1.613958
 H         1.860529         0.169580         2.302728
 H         4.480657         0.795865         0.816208
 H         4.408788        -1.160255        -1.834956
 H         1.454145        -2.198890        -0.744469
 H         1.943854        -2.031063         1.076224
 H         2.296057         1.832303        -1.963893
