19
Iteration:  4302charge 0 multiplicity 1
 C        -0.126260         0.220475        -0.272919
 C         1.267731         0.010473         0.117299
 C         2.098703         0.647374         1.302349
 C         3.355113         0.560335         0.447843
 C         3.155872        -0.799356        -0.242695
 O         4.231130        -1.505909        -0.879024
 C         1.913660        -1.477442         0.090383
 C         2.576378         0.370885        -0.812525
 O         2.884686         0.832638        -2.183864
 H        -0.651911        -0.683001         0.294935
 H        -0.755002         1.222703         0.036769
 H        -0.050890         0.052218        -1.406767
 H         1.939428         1.805653         1.390030
 H         2.249453         0.304145         2.372994
 H         4.320569         0.860671         0.812756
 H         4.695524        -0.885683        -1.414612
 H         1.331983        -1.960270        -0.728312
 H         1.828961        -2.137046         0.972264
 H         3.078487         1.819504        -2.187835
