19
Iteration:  4237
 C        -0.075781         0.357761        -0.184945
 C         1.353238        -0.072594         0.069916
 C         2.054364         0.596040         1.239929
 C         3.362910         0.508362         0.450579
 C         3.233743        -0.847015        -0.354454
 O         4.386758        -1.519728        -0.656818
 C         1.885400        -1.532749        -0.035457
 C         2.591193         0.406622        -0.894428
 O         2.706566         1.017598        -2.157488
 H        -0.749736         0.336218         0.762578
 H        -0.271511         1.373991        -0.578893
 H        -0.553685        -0.403825        -0.810420
 H         1.669028         1.619036         1.063609
 H         1.864222         0.012118         2.111873
 H         4.368348         0.812312         0.629405
 H         4.262481        -2.372229        -0.912395
 H         1.380964        -2.133583        -0.824066
 H         1.852166        -2.119569         0.921237
 H         2.568662         1.943874        -2.131803
