19
Iteration:  1641charge 0 multiplicity 1
 C        -0.074931         0.114016        -0.291951
 C         1.382635        -0.031086         0.021399
 C         2.097743         0.717924         1.240138
 C         3.350000         0.480382         0.454095
 C         3.252989        -0.830317        -0.351899
 O         4.273572        -1.703585        -0.753761
 C         1.968087        -1.446791         0.094421
 C         2.592173         0.425274        -0.893989
 O         2.555474         1.111692        -2.072147
 H        -0.657891        -0.696133         0.287559
 H        -0.430593         1.050549        -0.121163
 H        -0.322248        -0.254943        -1.232467
 H         1.952366         1.798223         1.148763
 H         2.031316         0.357671         2.317461
 H         4.274102         1.155375         0.688200
 H         5.096551        -1.061491        -0.733903
 H         1.657590        -1.961167        -0.803140
 H         1.997868        -2.050958         1.038314
 H         3.037046         2.001451        -1.948834
