19
Iteration:   293charge 0 multiplicity 1
 C        -0.104677         0.222827        -0.098652
 C         1.369416         0.043144         0.103869
 C         2.110625         0.741888         1.189485
 C         3.438892         0.554008         0.325461
 C         3.182648        -0.883392        -0.318065
 O         4.285237        -1.534104        -0.864768
 C         1.867318        -1.388848         0.160286
 C         2.634641         0.361252        -0.886136
 O         2.602015         0.869655        -2.140199
 H        -0.683471        -0.709458         0.209137
 H        -0.549799         1.140559         0.319778
 H        -0.264229         0.240217        -1.128087
 H         1.822823         1.854375         1.080032
 H         1.969738         0.435195         2.242986
 H         4.528601         0.827862         0.412057
 H         4.752922        -1.855045        -0.188299
 H         1.556182        -2.041561        -0.608704
 H         1.855250        -1.905303         1.221190
 H         3.556292         0.864285        -2.508299
