19
Iteration:   467charge 0 multiplicity 1
 C        -0.084451         0.216293        -0.208274
 C         1.375692        -0.040874         0.106799
 C         2.172535         0.746372         1.220079
 C         3.421021         0.511880         0.373827
 C         3.201201        -0.856720        -0.319706
 O         4.306407        -1.621820        -0.772926
 C         1.912356        -1.436358         0.176539
 C         2.595034         0.352742        -0.946132
 O         2.571123         1.068230        -2.159063
 H        -0.863966         0.073663         0.588931
 H        -0.102907         1.278598        -0.550866
 H        -0.319396        -0.348574        -1.082341
 H         1.788588         1.811137         1.049332
 H         2.144111         0.411688         2.332053
 H         4.422517         0.722152         0.589966
 H         5.045537        -1.548316        -0.261228
 H         1.440494        -2.175690        -0.390477
 H         2.054767        -1.837986         1.172980
 H         1.962514         0.582073        -2.683723
