19
Iteration:    48charge 0 multiplicity 1
 C        -0.035747         0.270045        -0.372950
 C         1.407318         0.008715         0.055537
 C         2.201955         0.715111         1.169206
 C         3.449928         0.611456         0.222159
 C         3.269612        -0.860363        -0.210463
 O         4.387040        -1.640898        -0.675834
 C         1.952595        -1.436371         0.155514
 C         2.599331         0.334557        -0.870951
 O         2.286652         0.928473        -2.086889
 H        -0.655139        -0.468356         0.007533
 H        -0.403925         1.190532         0.117231
 H        -0.309515         0.337860        -1.585749
 H         1.913714         1.901025         1.307446
 H         2.037905         0.293422         2.233214
 H         4.538966         0.849733         0.301063
 H         4.887751        -2.114300         0.149838
 H         1.457846        -2.087884        -0.656017
 H         1.838665        -1.986869         1.090738
 H         2.503465         1.789610        -1.847915
