19
Iteration:  2285
 C        -0.156622         0.279023        -0.284237
 C         1.294093        -0.105231         0.077195
 C         1.965935         0.726472         1.225547
 C         3.366089         0.436529         0.481600
 C         3.305489        -0.890070        -0.358046
 O         4.418217        -1.496321        -0.925227
 C         1.885084        -1.539648         0.094698
 C         2.570063         0.343897        -0.795092
 O         2.706578         1.001522        -1.988920
 H        -0.826261         0.206228         0.560342
 H        -0.153789         1.474398        -0.690475
 H        -0.535720        -0.391740        -1.077940
 H         1.599115         1.725777         0.971896
 H         1.786761         0.315623         2.213881
 H         4.336369         1.062131         0.639732
 H         5.136321        -0.980164        -1.037232
 H         1.460836        -2.027188        -0.773996
 H         1.773250        -2.178874         0.986614
 H         3.399045         1.717370        -1.770546
