19
Iteration:  1775
 C        -0.116597         0.089867        -0.248129
 C         1.336104         0.075027         0.098544
 C         2.131833         0.614980         1.331881
 C         3.334635         0.508584         0.437978
 C         3.194189        -0.818711        -0.373269
 O         4.278563        -1.621430        -0.753345
 C         1.878349        -1.404933        -0.025638
 C         2.575545         0.453019        -0.863129
 O         2.780323         1.006621        -2.152283
 H        -0.663905        -0.417815         0.625484
 H        -0.612987         0.986650        -0.359891
 H        -0.217611        -0.590626        -1.122364
 H         1.974366         1.667706         1.481563
 H         2.134380        -0.140325         2.214221
 H         4.275171         0.921932         0.748936
 H         5.099587        -0.906621        -0.707908
 H         1.424974        -2.009946        -0.893309
 H         1.833443        -1.850188         1.042977
 H         2.536309         1.987821        -2.148559
