19
Iteration:  4125charge 0 multiplicity 1
 C        -0.136628         0.235857        -0.284450
 C         1.325438         0.026192         0.058866
 C         2.096252         0.653179         1.251185
 C         3.342086         0.476950         0.459468
 C         3.235133        -0.832207        -0.247554
 O         4.244984        -1.506961        -0.841617
 C         1.897304        -1.443787         0.171898
 C         2.575448         0.390531        -0.853612
 O         2.845120         0.861668        -2.110871
 H        -0.640282        -0.593266         0.119514
 H        -0.554377         1.265054        -0.075323
 H        -0.230936        -0.129376        -1.342541
 H         1.868860         1.796224         1.369900
 H         1.960138         0.068473         2.220923
 H         4.340469         1.005132         0.521597
 H         4.558703        -1.013225        -1.747676
 H         1.534791        -2.028166        -0.707623
 H         1.678626        -1.982541         1.108082
 H         2.760607         1.876614        -2.196042
