19
Iteration:  1475
 C        -0.120593         0.166632        -0.256481
 C         1.299136        -0.103912         0.038141
 C         2.074760         0.717608         1.200662
 C         3.403289         0.489498         0.342589
 C         3.248745        -0.885846        -0.310539
 O         4.482478        -1.428091        -0.754828
 C         1.940613        -1.487474         0.181762
 C         2.580971         0.360206        -0.875754
 O         2.544887         1.047625        -2.090617
 H        -0.829129        -0.356648         0.624318
 H        -0.301300         1.242114        -0.297149
 H        -0.445183        -0.351700        -1.153124
 H         1.630402         1.762111         1.149141
 H         2.176301         0.370908         2.254250
 H         4.392430         0.964383         0.413054
 H         4.275077        -2.426511        -1.185329
 H         1.440246        -2.103468        -0.547916
 H         1.906652        -1.958800         1.153253
 H         2.931999         1.897915        -2.033504
