19
Iteration:  4031
 C        -0.100760         0.345495        -0.244410
 C         1.318419        -0.044151         0.050394
 C         2.041642         0.609651         1.294588
 C         3.304076         0.419165         0.368769
 C         3.203057        -0.879044        -0.385797
 O         4.458417        -1.533555        -0.633107
 C         1.928169        -1.461165         0.107052
 C         2.603969         0.397246        -0.890977
 O         2.660266         1.036179        -2.185996
 H        -0.904095         0.071001         0.573957
 H         0.101170         1.406003        -0.666050
 H        -0.583446        -0.394487        -0.921012
 H         1.782960         1.617622         1.422344
 H         1.973300         0.019498         2.202766
 H         4.381524         0.568462         0.622672
 H         4.519191        -1.851312        -1.512520
 H         1.369609        -2.134005        -0.580343
 H         1.854894        -1.923385         1.127657
 H         2.762302         1.961783        -2.063252
