19
Iteration:   169charge 0 multiplicity 1
 C        -0.165926         0.209983        -0.028997
 C         1.304055         0.076023         0.048659
 C         2.081783         0.740090         1.170464
 C         3.349786         0.567773         0.453757
 C         3.247862        -0.875835        -0.225704
 O         4.321291        -1.492336        -0.957193
 C         1.857519        -1.425047         0.186515
 C         2.645143         0.345267        -0.927981
 O         2.719139         0.868777        -2.250455
 H        -0.544677         0.411937         0.871751
 H        -0.459434         1.005535        -0.702355
 H        -0.703253        -0.783472        -0.368767
 H         1.970588         1.831257         1.431090
 H         1.973812         0.199670         2.098362
 H         4.319536         0.819522         0.760039
 H         4.815361        -2.199127        -0.202632
 H         1.461270        -2.051875        -0.671722
 H         1.699373        -1.820069         1.200933
 H         3.708993         0.939134        -2.536447
