19
Iteration:  4961
 C        -0.025884         0.206494        -0.410349
 C         1.411360         0.011575         0.074042
 C         2.117284         0.686301         1.281551
 C         3.383597         0.600638         0.434443
 C         3.175600        -0.867935        -0.283929
 O         4.321605        -1.683701        -0.680619
 C         1.861976        -1.449546         0.031930
 C         2.630967         0.361544        -0.843992
 O         2.608746         1.030696        -2.061289
 H        -0.573199        -0.441642         0.171123
 H        -0.514688         1.166132        -0.210482
 H        -0.181013        -0.031065        -1.463638
 H         1.936050         1.776256         1.379920
 H         1.994719         0.043886         2.198524
 H         4.445499         0.920643         0.523454
 H         4.331426        -1.741808        -1.676643
 H         1.334510        -1.899827        -0.799458
 H         1.634341        -1.944354         0.942022
 H         2.784809         2.034427        -1.894226
