19
Iteration:  2790
 C        -0.087733         0.174735        -0.364415
 C         1.355099         0.030039         0.143589
 C         2.104696         0.644642         1.364572
 C         3.398637         0.614150         0.430668
 C         3.236400        -0.843203        -0.294519
 O         4.249063        -1.562504        -0.787725
 C         1.905167        -1.500807         0.072573
 C         2.557111         0.426826        -0.823966
 O         2.732826         0.954324        -2.138212
 H        -0.720461        -0.549448         0.187184
 H        -0.604176         1.235086        -0.318881
 H        -0.018091        -0.181531        -1.445769
 H         1.738873         1.590267         1.661529
 H         2.139172         0.016771         2.270940
 H         4.423249         1.022722         0.537662
 H         4.010933        -1.642369        -1.800481
 H         1.652584        -1.975874        -0.858015
 H         1.774288        -2.233054         0.910094
 H         2.997096         1.920593        -1.969617
