19
Iteration:  2089
 C        -0.108616         0.331782        -0.204914
 C         1.357466        -0.010219         0.004300
 C         1.989430         0.509944         1.246526
 C         3.343305         0.496315         0.501564
 C         3.304987        -0.821578        -0.260968
 O         4.380804        -1.470747        -0.844926
 C         1.937665        -1.429149         0.002257
 C         2.655020         0.443790        -0.812934
 O         2.616589         0.988553        -2.086722
 H        -0.587600         0.077627         0.738022
 H        -0.335661         1.377230        -0.485782
 H        -0.541695        -0.322922        -0.944291
 H         1.626743         1.563075         1.465637
 H         1.787880        -0.014642         2.176650
 H         4.353839         0.711485         0.958454
 H         3.984783        -2.185409        -1.253252
 H         1.650603        -2.021341        -0.881826
 H         1.895763        -2.194289         0.839104
 H         3.194956         0.516343        -2.719769
