19
Iteration:  3671
 C        -0.168570         0.188422        -0.267497
 C         1.300230         0.011323         0.095203
 C         2.043786         0.627998         1.323212
 C         3.405018         0.474091         0.593049
 C         3.212442        -0.824007        -0.252144
 O         4.264352        -1.409557        -0.968861
 C         1.837260        -1.400750         0.087399
 C         2.648140         0.435522        -0.844007
 O         2.883036         0.747612        -2.142135
 H        -0.922094         0.162788         0.663791
 H        -0.424007         1.281147        -0.583180
 H        -0.480490        -0.337993        -1.151401
 H         1.808956         1.568997         1.331997
 H         1.957234         0.037611         2.155691
 H         4.477268         0.804346         0.859142
 H         4.606650        -0.863398        -1.734013
 H         1.305070        -2.028311        -0.651550
 H         1.807218        -1.945384         1.037535
 H         2.907458         1.779334        -2.279080
