19
Iteration:  4552
 C        -0.104964         0.239121        -0.177769
 C         1.346323         0.007799         0.022694
 C         2.042802         0.614587         1.215711
 C         3.369044         0.382438         0.489976
 C         3.203440        -0.880236        -0.281460
 O         4.396760        -1.493771        -0.691509
 C         1.881922        -1.442867         0.018771
 C         2.576584         0.454321        -0.959457
 O         2.716272         1.114496        -2.155284
 H        -0.601917        -0.713118         0.179170
 H        -0.460749         1.274993         0.245761
 H        -0.362418         0.210152        -1.254979
 H         1.812259         1.750524         1.216112
 H         1.865256         0.427774         2.266241
 H         4.356768         0.673351         0.797119
 H         4.520283        -2.357389        -0.407757
 H         1.358339        -2.131951        -0.736714
 H         1.936985        -2.079510         0.930834
 H         2.724757         0.555101        -2.933777
