19
Iteration:  1501
 C        -0.082430         0.309624        -0.249558
 C         1.292408        -0.064789         0.087543
 C         2.034205         0.715356         1.230624
 C         3.324270         0.466952         0.441532
 C         3.246039        -0.881781        -0.316951
 O         4.448820        -1.293954        -0.930992
 C         1.969642        -1.539150         0.177105
 C         2.516852         0.253349        -0.911167
 O         2.653892         0.885868        -2.101504
 H        -0.763311         0.039138         0.598056
 H        -0.098127         1.388762        -0.411094
 H        -0.469361        -0.311689        -1.071656
 H         1.678786         1.692457         1.390472
 H         2.061111         0.093612         2.210230
 H         4.292213         0.932890         0.616697
 H         4.871952        -2.011730        -0.257756
 H         1.409942        -2.110037        -0.593928
 H         2.040005        -2.071549         1.161043
 H         2.458967         1.802942        -1.949304
