19
Iteration:  4887
 C        -0.172418         0.368024        -0.148001
 C         1.312893        -0.074191        -0.009125
 C         2.039780         0.600968         1.254261
 C         3.269077         0.487400         0.405482
 C         3.168521        -0.881147        -0.322363
 O         4.406075        -1.456310        -0.688816
 C         1.875183        -1.598150         0.021299
 C         2.565181         0.402393        -0.930657
 O         2.898919         0.964286        -2.116498
 H        -0.720261         0.178945         0.851572
 H        -0.266632         1.541386        -0.152016
 H        -0.815244        -0.095598        -1.055970
 H         1.743705         1.622366         1.234739
 H         1.994434         0.113839         2.227268
 H         4.241664         0.951536         0.653001
 H         4.477771        -1.907047        -1.615160
 H         1.543281        -2.069648        -0.908432
 H         1.860379        -2.106073         1.021109
 H         3.105020         2.002457        -1.926502
