19
Iteration:  2442
 C        -0.065584         0.196096        -0.339558
 C         1.353555        -0.012099         0.061331
 C         1.978184         0.621323         1.293882
 C         3.319775         0.599298         0.537241
 C         3.296475        -0.839811        -0.338869
 O         4.277913        -1.632945        -0.784061
 C         1.993363        -1.461935         0.052112
 C         2.706089         0.397756        -0.839874
 O         2.605252         1.046748        -2.055668
 H        -0.792581        -0.562479         0.143913
 H        -0.442180         1.272139        -0.133209
 H        -0.085525         0.121230        -1.468956
 H         1.544205         1.623754         1.567132
 H         1.987008         0.104546         2.214056
 H         4.400093         0.935639         0.711482
 H         4.103017        -1.598846        -1.771359
 H         1.653183        -2.088008        -0.767013
 H         1.946049        -2.007144         0.977237
 H         3.306962         1.598595        -2.448777
