19
Iteration:   413
 C        -0.006026         0.308368        -0.264401
 C         1.388201        -0.064782         0.133560
 C         2.183792         0.807914         1.154251
 C         3.377896         0.483985         0.324049
 C         3.173026        -0.921998        -0.313266
 O         4.326218        -1.600965        -0.723297
 C         1.987086        -1.604158         0.206243
 C         2.575908         0.309451        -0.959017
 O         2.427517         1.180595        -2.090202
 H        -0.578130         0.679817         0.640749
 H         0.110507         1.150826        -0.953798
 H        -0.525695        -0.461757        -0.708816
 H         1.772233         1.903283         1.107364
 H         2.224169         0.446896         2.210014
 H         4.361205         0.849853         0.407905
 H         4.801969        -1.819043        -0.034192
 H         1.592793        -2.166800        -0.539376
 H         2.124616        -2.300623         1.069479
 H         2.622968         0.651647        -2.865172
