19
Iteration:  4462
 C        -0.081387         0.222273        -0.303004
 C         1.345364         0.046218         0.024534
 C         2.053167         0.697800         1.241369
 C         3.386458         0.409279         0.477369
 C         3.216469        -0.921765        -0.329275
 O         4.478891        -1.547825        -0.723377
 C         1.842307        -1.453479         0.077221
 C         2.574796         0.360942        -0.862114
 O         2.612985         1.098091        -2.056133
 H        -0.761145         0.206177         0.675891
 H        -0.334110         1.205876        -0.692497
 H        -0.503667        -0.499763        -1.055463
 H         1.850846         1.821336         1.476450
 H         1.803647         0.264060         2.245204
 H         4.386209         0.893573         0.603634
 H         4.425380        -1.677908        -1.616583
 H         1.363508        -2.178683        -0.666273
 H         1.822604        -1.945993         1.076255
 H         3.169678         0.805254        -2.784441
