19
Iteration:  1254
 C        -0.124707         0.060215        -0.162799
 C         1.335392        -0.093126         0.087212
 C         2.088982         0.767122         1.113027
 C         3.364338         0.548628         0.294750
 C         3.276834        -0.867900        -0.384014
 O         4.443231        -1.531241        -0.653959
 C         2.024551        -1.484478         0.211836
 C         2.523192         0.345228        -0.944967
 O         2.511748         1.130249        -2.141257
 H        -0.703055        -0.571251         0.548623
 H        -0.464088         1.096101        -0.048865
 H        -0.354083        -0.211964        -1.201238
 H         1.777190         1.904131         1.084339
 H         2.310966         0.452537         2.137389
 H         4.172167         1.147211         0.163060
 H         4.037403        -2.509532        -0.481783
 H         1.585793        -2.169368        -0.558661
 H         2.189658        -1.897776         1.197712
 H         3.039823         1.899910        -2.005734
