19
Iteration:  3296
 C        -0.134669         0.242719        -0.308961
 C         1.284840        -0.010567         0.042181
 C         2.084889         0.644087         1.191620
 C         3.360224         0.398296         0.431008
 C         3.220661        -0.905242        -0.285576
 O         4.387530        -1.575286        -0.831259
 C         1.884280        -1.442276         0.241770
 C         2.605845         0.364734        -0.867378
 O         2.697708         1.064570        -2.093811
 H        -0.887948         0.259700         0.536817
 H        -0.307344         1.221789        -0.794418
 H        -0.434064        -0.331134        -1.128955
 H         1.913058         1.742272         1.029466
 H         2.096829         0.113193         2.090924
 H         4.333023         0.685387         0.721485
 H         4.919619        -0.877323        -1.291646
 H         1.465722        -2.285834        -0.411578
 H         1.787850        -1.876850         1.273433
 H         2.812214         2.039081        -1.865618
