19
Iteration:  1304charge 0 multiplicity 1
 C        -0.154150         0.122485        -0.175695
 C         1.330704        -0.028629         0.111126
 C         2.064088         0.691164         1.228634
 C         3.448558         0.584276         0.404222
 C         3.294081        -0.787694        -0.247614
 O         4.328866        -1.378703        -0.924506
 C         1.941921        -1.454696         0.127130
 C         2.524814         0.353256        -0.850700
 O         2.668255         0.787585        -2.148261
 H        -0.785694        -0.309467         0.547787
 H        -0.374353         1.225929        -0.295903
 H        -0.364942        -0.218757        -1.239859
 H         1.853158         1.726498         1.215881
 H         1.900539         0.317507         2.274317
 H         4.448672         1.071392         0.585252
 H         4.927679        -1.626643        -0.256537
 H         1.699682        -1.998647        -0.786811
 H         1.887807        -2.077879         1.054876
 H         2.189852         1.611494        -2.411110
