19
Iteration:  4290
 C        -0.162849         0.204764        -0.241394
 C         1.344989        -0.025837         0.151317
 C         2.131008         0.754838         1.340092
 C         3.315303         0.529918         0.463719
 C         3.178336        -0.871771        -0.316018
 O         4.258956        -1.465552        -0.807274
 C         1.866008        -1.508991         0.052421
 C         2.599311         0.398395        -0.905773
 O         2.892780         0.830549        -2.167066
 H        -0.938439        -0.457074         0.282975
 H        -0.359276         1.358370         0.043640
 H        -0.497172         0.096226        -1.336291
 H         1.712639         1.791060         1.501240
 H         2.018061         0.082540         2.241462
 H         4.336200         0.813848         0.588143
 H         4.556547        -0.894102        -1.510691
 H         1.452216        -1.998179        -0.864515
 H         1.827092        -2.147167         0.938328
 H         2.940270         1.758751        -2.130328
