19
Iteration:  1837
 C        -0.080841         0.232842        -0.312907
 C         1.349186        -0.047307         0.075271
 C         2.009551         0.744728         1.179499
 C         3.379710         0.420529         0.365920
 C         3.255391        -0.974600        -0.332522
 O         4.441409        -1.496461        -0.752832
 C         1.897314        -1.507029         0.090600
 C         2.539064         0.303400        -0.888475
 O         2.626651         1.123676        -1.954950
 H        -0.799966        -0.482458         0.193395
 H        -0.399193         1.299950        -0.113878
 H        -0.207104         0.177990        -1.371763
 H         1.822775         1.828657         1.250724
 H         1.881788         0.431956         2.163545
 H         4.410197         1.024402         0.428508
 H         4.279320        -2.162530        -1.565039
 H         1.442495        -2.247610        -0.474489
 H         1.922145        -1.947295         1.065714
 H         3.103152         1.998033        -1.681021
