19
Iteration:  3200charge 0 multiplicity 1
 C        -0.117538         0.219788        -0.221172
 C         1.307042        -0.001285         0.055993
 C         2.074857         0.689825         1.274795
 C         3.368424         0.450171         0.508396
 C         3.156972        -0.888815        -0.345481
 O         4.408761        -1.404379        -0.763705
 C         1.841390        -1.442701         0.091874
 C         2.634486         0.384600        -0.877775
 O         2.785042         0.881908        -2.170421
 H        -0.777706        -0.452444         0.375114
 H        -0.471541         1.232567         0.026985
 H        -0.293007         0.037698        -1.376482
 H         1.860480         1.722293         1.273117
 H         1.917220         0.084099         2.184900
 H         4.310725         0.887341         0.700303
 H         4.140003        -1.999465        -1.418973
 H         1.324458        -1.969401        -0.744063
 H         1.703090        -1.986409         1.003624
 H         2.743799         1.892677        -2.220943
