19
Iteration:  3050charge 0 multiplicity 1
 C        -0.182182         0.385213        -0.158223
 C         1.276868         0.001389         0.053451
 C         2.030965         0.651879         1.255785
 C         3.294472         0.435750         0.461609
 C         3.197232        -0.938762        -0.380112
 O         4.446538        -1.334460        -0.819249
 C         1.853103        -1.564998         0.119082
 C         2.593302         0.293813        -0.892464
 O         2.919706         0.891951        -2.123323
 H        -0.973756        -0.117156         0.622615
 H        -0.367595         1.487262        -0.071329
 H        -0.553119        -0.053292        -1.139519
 H         1.730009         1.703077         1.393310
 H         1.906290         0.342790         2.207787
 H         4.215953         0.999719         0.524042
 H         4.462880        -1.892480        -1.738295
 H         1.329020        -2.288122        -0.517489
 H         1.973568        -1.992852         1.174047
 H         2.402558         1.745958        -2.189815
