19
Iteration:  4236charge 0 multiplicity 1
 C        -0.073026         0.352145        -0.185343
 C         1.359224        -0.073110         0.074033
 C         2.059114         0.594823         1.238216
 C         3.357891         0.507142         0.442131
 C         3.225901        -0.845391        -0.358571
 O         4.391457        -1.520760        -0.653372
 C         1.885048        -1.531746        -0.035163
 C         2.588119         0.408608        -0.890081
 O         2.705411         1.019474        -2.156062
 H        -0.739045         0.354112         0.761317
 H        -0.271642         1.401754        -0.606050
 H        -0.557788        -0.416403        -0.838786
 H         1.671256         1.605709         1.090414
 H         1.868925         0.032220         2.131019
 H         4.353828         0.826099         0.643852
 H         4.238652        -2.407241        -0.905011
 H         1.375896        -2.123427        -0.828288
 H         1.855839        -2.118962         0.910818
 H         2.572092         1.948225        -2.134977
