19
Iteration:  3349charge 0 multiplicity 1
 C        -0.050685         0.213998        -0.329072
 C         1.344492        -0.021458         0.038365
 C         2.090104         0.624306         1.228802
 C         3.430974         0.518613         0.493896
 C         3.290251        -0.881752        -0.317540
 O         4.352010        -1.687623        -0.699800
 C         1.918265        -1.468449         0.076037
 C         2.625063         0.458312        -0.855984
 O         2.542484         1.116558        -2.121651
 H        -0.708060        -0.190653         0.441793
 H        -0.190334         1.298537        -0.459814
 H        -0.401262        -0.134753        -1.271033
 H         1.742801         1.795096         1.245324
 H         1.764162         0.270795         2.304588
 H         4.304734         1.103102         0.527355
 H         3.935906        -2.289036        -1.450408
 H         1.492930        -2.149278        -0.703839
 H         1.861120        -1.909044         1.093689
 H         2.844702         2.044364        -1.899862
