19
Iteration:  4016charge 0 multiplicity 1
 C        -0.100063         0.277570        -0.352626
 C         1.363932        -0.025325         0.039405
 C         2.164785         0.616532         1.178311
 C         3.419893         0.470743         0.437932
 C         3.205594        -0.884028        -0.383722
 O         4.385198        -1.563029        -0.607720
 C         1.874841        -1.503467         0.099109
 C         2.560454         0.386907        -0.882649
 O         2.609014         1.054480        -2.065859
 H        -0.705425         0.320451         0.543723
 H        -0.370645         1.182464        -0.736324
 H        -0.480338        -0.340652        -1.155039
 H         1.894295         1.716255         1.467251
 H         2.006102         0.224843         2.255225
 H         4.362287         0.986912         0.537942
 H         4.318173        -1.872633        -1.639916
 H         1.450536        -2.218782        -0.644074
 H         1.949669        -1.908948         1.109083
 H         2.534180         2.003774        -1.889029
