19
Iteration:   992
 C        -0.060406         0.304309        -0.277386
 C         1.368469        -0.005196         0.129091
 C         2.136166         0.668659         1.284155
 C         3.369712         0.579044         0.417984
 C         3.254741        -0.784914        -0.314979
 O         4.366676        -1.450597        -0.868874
 C         1.976456        -1.539517         0.171128
 C         2.569733         0.379430        -0.837197
 O         2.511159         0.815821        -2.198673
 H        -0.877624         0.163702         0.519396
 H        -0.120456         1.331960        -0.712023
 H        -0.275722        -0.414160        -1.077944
 H         1.940542         1.718885         1.315069
 H         2.105059         0.323695         2.342335
 H         4.505058         0.826900         0.505044
 H         4.560110        -2.299927        -0.188202
 H         1.652738        -2.205337        -0.668628
 H         1.927658        -2.072636         1.109950
 H         1.894074         1.591690        -2.250322
