19
Iteration:  2192
 C        -0.075273         0.276371        -0.248767
 C         1.385542        -0.071200         0.061589
 C         2.059963         0.645514         1.236879
 C         3.348857         0.552075         0.454115
 C         3.284800        -0.882694        -0.349224
 O         4.306357        -1.653131        -0.718562
 C         1.916014        -1.560738        -0.076772
 C         2.625318         0.396782        -0.822536
 O         2.657519         1.168574        -2.031557
 H        -0.785915        -0.399627         0.400417
 H        -0.384969         1.294496         0.057282
 H        -0.308245         0.036084        -1.334085
 H         1.625592         1.600646         0.927610
 H         2.073698         0.308175         2.335669
 H         4.332310         0.850137         0.516206
 H         5.294022        -1.245903        -0.559063
 H         1.478127        -1.989465        -1.026443
 H         1.654988        -2.191449         0.804290
 H         1.796031         1.245051        -2.482394
