19
Iteration:  4880charge 0 multiplicity 1
 C        -0.191449         0.395762        -0.185528
 C         1.282895        -0.107596         0.052620
 C         2.068517         0.655293         1.261969
 C         3.246406         0.479385         0.489130
 C         3.186305        -0.907243        -0.369309
 O         4.391936        -1.468154        -0.704700
 C         1.916572        -1.563562        -0.019684
 C         2.612332         0.404188        -0.888062
 O         2.879445         0.946231        -2.143059
 H        -0.853349         0.139431         0.697804
 H        -0.381432         1.401879        -0.407005
 H        -0.740411        -0.181333        -0.856898
 H         1.677895         1.712867         1.549020
 H         2.064555         0.288895         2.351924
 H         4.215910         0.912978         0.565009
 H         4.365491        -1.633844        -1.717847
 H         1.592023        -2.216435        -0.912637
 H         1.758478        -2.206630         0.929876
 H         3.243499         1.882075        -2.032867
