19
Iteration:  2315
 C        -0.088374         0.171346        -0.269870
 C         1.349418         0.022514         0.021557
 C         2.065066         0.624489         1.286296
 C         3.332958         0.371559         0.525890
 C         3.223405        -0.801346        -0.360546
 O         4.285389        -1.467306        -0.816892
 C         1.872501        -1.447681         0.063074
 C         2.652199         0.451902        -0.813386
 O         2.784417         0.956919        -2.120959
 H        -0.722163         0.268801         0.583768
 H        -0.300820         1.053802        -0.942911
 H        -0.392941        -0.728512        -0.792625
 H         1.682808         1.630965         1.531364
 H         1.945704        -0.167341         2.163649
 H         4.307363         0.672422         1.026872
 H         4.812353        -0.816513        -1.375124
 H         1.369508        -2.090510        -0.733151
 H         1.735289        -2.092761         0.941619
 H         2.302056         1.750790        -2.140219
