19
Iteration:  3259
 C        -0.109324         0.333628        -0.137265
 C         1.314551        -0.076599         0.092953
 C         2.003522         0.648432         1.200570
 C         3.257374         0.590842         0.432458
 C         3.243698        -0.841249        -0.302872
 O         4.355472        -1.588719        -0.814472
 C         1.921559        -1.509050        -0.021912
 C         2.540854         0.426526        -0.826596
 O         2.841510         0.843434        -2.100226
 H        -0.719720         0.019933         0.630800
 H        -0.060112         1.402911        -0.233575
 H        -0.474277        -0.098463        -1.051453
 H         1.609829         1.686325         1.363257
 H         1.880029         0.332498         2.289069
 H         4.271039         1.058466         0.578012
 H         5.025459        -0.884386        -1.211678
 H         1.652763        -2.044994        -0.904858
 H         1.871052        -2.108394         0.910422
 H         2.463913         1.703997        -2.287395
