19
Iteration:  1881charge 0 multiplicity 1
 C        -0.069511         0.268894        -0.299371
 C         1.380166         0.046285         0.080619
 C         2.113042         0.469498         1.337604
 C         3.308914         0.517014         0.491602
 C         3.225935        -0.813970        -0.346211
 O         4.429092        -1.492050        -0.667656
 C         1.913154        -1.442265        -0.029893
 C         2.606513         0.461363        -0.842541
 O         2.523164         0.962054        -2.145014
 H        -0.815008        -0.154079         0.442959
 H        -0.305887         1.302127        -0.620342
 H        -0.205938        -0.271232        -1.219097
 H         1.785748         1.444262         1.685162
 H         2.074368        -0.134464         2.175310
 H         4.359908         0.942361         0.531094
 H         4.123631        -1.928608        -1.482587
 H         1.518968        -1.958626        -0.847050
 H         1.779084        -2.100054         0.802135
 H         3.443680         1.291850        -2.462005
