19
Iteration:  4000
 C        -0.080595         0.200055        -0.394210
 C         1.337516         0.014929         0.044380
 C         2.106228         0.762188         1.269420
 C         3.406850         0.496717         0.368225
 C         3.269144        -0.930527        -0.257290
 O         4.346819        -1.619020        -0.695412
 C         1.892960        -1.486193         0.087578
 C         2.635894         0.353256        -0.883695
 O         2.572642         1.088907        -2.006210
 H        -0.732945         0.176606         0.539657
 H        -0.158217         1.301644        -0.827485
 H        -0.170588        -0.508858        -1.273454
 H         1.885235         1.820052         1.187818
 H         2.189538         0.215981         2.207633
 H         4.468375         0.835129         0.418365
 H         4.168840        -2.127424        -1.550037
 H         1.528932        -1.977863        -0.832966
 H         1.735601        -2.176989         0.954820
 H         2.294472         2.025772        -1.705887
