19
Iteration:  4476charge 0 multiplicity 1
 C        -0.101882         0.224054        -0.346090
 C         1.353572         0.034659         0.062613
 C         2.044592         0.667164         1.229825
 C         3.321658         0.417488         0.468132
 C         3.204654        -0.907584        -0.383304
 O         4.365563        -1.460546        -0.757213
 C         1.920653        -1.471749         0.209038
 C         2.663357         0.393851        -0.886005
 O         2.660909         1.096525        -2.039348
 H        -0.679688        -0.190204         0.437082
 H        -0.284438         1.298551        -0.680338
 H        -0.328016        -0.451180        -1.154504
 H         1.941946         1.865683         1.197484
 H         1.940107         0.022416         2.315014
 H         4.351908         0.631487         0.726803
 H         4.242109        -1.972760        -1.692572
 H         1.266577        -2.045069        -0.587074
 H         1.848461        -1.988497         1.190029
 H         3.134838         0.403291        -2.554022
