19
Iteration:  2466
 C        -0.048640         0.192299        -0.336809
 C         1.368988         0.035500        -0.011906
 C         1.972464         0.678521         1.262948
 C         3.386582         0.416703         0.610286
 C         3.251926        -0.887086        -0.374433
 O         4.418426        -1.524539        -0.863487
 C         1.879141        -1.481985         0.143185
 C         2.575313         0.442045        -0.782762
 O         2.621379         1.022222        -2.085887
 H        -0.717283        -0.403592         0.487611
 H        -0.338848         1.252839        -0.322170
 H        -0.283538        -0.178362        -1.431806
 H         1.895058         1.770791         1.255887
 H         1.703698         0.362097         2.250723
 H         4.425547         0.698876         1.064505
 H         4.218955        -1.602069        -1.743593
 H         1.427141        -2.147804        -0.648984
 H         1.729936        -1.912911         1.128887
 H         3.409689         1.474900        -2.279986
