19
Iteration:  3526
 C        -0.080047         0.287377        -0.220382
 C         1.327243        -0.050898         0.015168
 C         2.035957         0.660491         1.190803
 C         3.424711         0.478499         0.439422
 C         3.197340        -0.884669        -0.352544
 O         4.392671        -1.586589        -0.691894
 C         1.877179        -1.528562         0.084649
 C         2.657373         0.420381        -0.848702
 O         2.597804         1.099852        -2.127517
 H        -0.852135         0.115383         0.641271
 H        -0.280374         1.406264        -0.357176
 H        -0.266157        -0.225607        -1.269194
 H         1.838439         1.666764         1.337972
 H         2.115451         0.152817         2.168197
 H         4.413139         0.910985         0.631959
 H         4.124270        -2.284375        -1.357912
 H         1.582216        -2.309341        -0.675582
 H         1.817008        -2.086267         0.997501
 H         3.118262         1.880250        -2.010717
