19
Iteration:  3851
 C        -0.158986         0.262456        -0.293340
 C         1.321038        -0.014732         0.115134
 C         2.113227         0.617254         1.287729
 C         3.406056         0.492125         0.413864
 C         3.131433        -0.822032        -0.314350
 O         4.326451        -1.441655        -0.783085
 C         1.891928        -1.495869         0.074917
 C         2.517982         0.445786        -0.811384
 O         2.867133         0.840426        -2.128405
 H        -0.859201         0.197576         0.743395
 H        -0.273055         1.279160        -0.626269
 H        -0.335416        -0.345029        -1.205758
 H         1.715692         1.577470         1.452074
 H         2.013283         0.270947         2.293507
 H         4.452357         0.869242         0.581003
 H         4.220450        -1.606426        -1.720487
 H         1.361118        -2.051929        -0.735660
 H         1.845832        -2.197534         0.927405
 H         2.831778         1.830930        -2.097407
