19
Iteration:  1784charge 0 multiplicity 1
 C        -0.111417         0.074374        -0.238003
 C         1.380487         0.046647         0.056989
 C         2.065530         0.617331         1.274497
 C         3.335851         0.506920         0.432803
 C         3.248401        -0.826991        -0.390911
 O         4.248370        -1.646650        -0.734007
 C         1.886161        -1.382461         0.058501
 C         2.605900         0.434689        -0.924886
 O         2.774863         1.068815        -2.101070
 H        -0.704247        -0.579871         0.545575
 H        -0.530469         1.034641        -0.312276
 H        -0.303601        -0.433805        -1.183038
 H         1.808709         1.658086         1.512962
 H         2.136976         0.120411         2.315658
 H         4.368748         0.960109         0.816941
 H         5.168530        -1.161895        -1.108238
 H         1.238196        -1.912772        -0.699959
 H         1.926197        -2.037797         1.028114
 H         2.324830         1.978479        -2.090980
