19
Iteration:   884
 C        -0.153670         0.099860        -0.083640
 C         1.366612        -0.016966         0.055357
 C         2.116989         0.772046         1.154991
 C         3.387110         0.591785         0.285234
 C         3.228522        -0.867793        -0.391419
 O         4.286424        -1.720480        -0.621061
 C         1.974999        -1.429036         0.094507
 C         2.580586         0.372545        -0.965273
 O         2.578851         1.091779        -2.178866
 H        -0.513114        -0.457673         0.863503
 H        -0.651527         1.023121        -0.004984
 H        -0.397749        -0.352946        -0.965732
 H         1.752777         1.770191         1.276473
 H         2.275847         0.249976         2.218713
 H         4.509111         0.801873         0.418058
 H         5.237805        -1.185881        -0.474319
 H         1.430028        -2.127992        -0.536276
 H         1.990061        -1.795268         1.121475
 H         3.232700         1.888767        -2.229314
