19
Iteration:   789charge 0 multiplicity 1
 C        -0.039225         0.300834        -0.331664
 C         1.390621         0.001322         0.150391
 C         2.189998         0.666735         1.275831
 C         3.353438         0.580543         0.391731
 C         3.262633        -0.838240        -0.276721
 O         4.346350        -1.462750        -0.877769
 C         1.894354        -1.476241         0.148610
 C         2.584556         0.363633        -0.820508
 O         2.444153         0.861232        -2.116807
 H        -0.753613         0.218828         0.508177
 H        -0.192138         1.323983        -0.713954
 H        -0.152812        -0.380834        -1.218611
 H         1.770744         1.714857         1.460834
 H         2.260737         0.108929         2.170148
 H         4.318346         1.192779         0.294917
 H         4.839739        -1.772688        -0.163572
 H         1.438826        -2.052896        -0.631352
 H         1.929129        -2.150796         1.093910
 H         2.982509         0.273204        -2.645566
