19
Iteration:   436
 C        -0.079049         0.318725        -0.293205
 C         1.343212        -0.032436         0.044276
 C         2.195396         0.749093         1.159332
 C         3.431353         0.516760         0.267936
 C         3.299924        -0.915544        -0.318733
 O         4.454256        -1.706393        -0.764931
 C         1.879507        -1.445481         0.195305
 C         2.511089         0.267597        -0.904065
 O         2.391645         1.141402        -1.946373
 H        -0.783393         0.630315         0.555765
 H         0.066967         1.175338        -0.929010
 H        -0.508868        -0.425010        -0.854676
 H         1.764241         1.829723         1.202943
 H         2.215238         0.339567         2.166797
 H         4.305471         1.073790        -0.004452
 H         5.134713        -1.679750         0.113220
 H         1.467875        -2.185022        -0.380552
 H         1.986377        -1.853074         1.227153
 H         2.568181         0.656387        -2.829283
