19
Iteration:  1092charge 0 multiplicity 1
 C        -0.217310         0.085144        -0.155482
 C         1.320237        -0.062918         0.093857
 C         2.114247         0.807816         1.197584
 C         3.411671         0.621961         0.314436
 C         3.282219        -0.802595        -0.303504
 O         4.402166        -1.533208        -0.718059
 C         1.930573        -1.471160         0.152904
 C         2.611946         0.346308        -0.946812
 O         2.685363         1.026867        -2.122253
 H        -0.658400        -0.609204         0.719512
 H        -0.684763         1.052757        -0.038807
 H        -0.517022        -0.358092        -1.070456
 H         1.828858         1.791308         1.295140
 H         2.015215         0.318776         2.200793
 H         4.352445         1.124670         0.377136
 H         4.142752        -2.367593        -1.404927
 H         1.550076        -2.130068        -0.667295
 H         1.955713        -1.905898         1.167255
 H         1.919948         0.930046        -2.671375
