19
Iteration:  1535
 C        -0.094149         0.248610        -0.209492
 C         1.361373        -0.034432         0.051637
 C         2.035294         0.616905         1.283344
 C         3.366593         0.581446         0.524388
 C         3.261493        -0.759555        -0.285281
 O         4.318199        -1.463893        -0.857425
 C         1.959942        -1.479852         0.024495
 C         2.522810         0.428176        -0.824849
 O         2.684494         0.759634        -2.174442
 H        -0.669205         0.060689         0.686967
 H        -0.316225         1.287086        -0.594364
 H        -0.450658        -0.399961        -1.075991
 H         1.722745         1.559727         1.678031
 H         2.263705        -0.043625         2.163763
 H         4.336468         1.118060         0.893477
 H         5.042523        -0.954297        -1.000066
 H         1.592655        -1.998598        -0.918867
 H         1.931050        -2.228341         0.855802
 H         2.277725         1.673164        -2.258513
