19
Iteration:  2997charge 0 multiplicity 1
 C        -0.102427         0.139109        -0.263506
 C         1.343512         0.086641        -0.016384
 C         2.023861         0.661767         1.282180
 C         3.380998         0.596462         0.538996
 C         3.287719        -0.829685        -0.279898
 O         4.298541        -1.683241        -0.808691
 C         1.904056        -1.339028         0.052237
 C         2.706696         0.470305        -0.842303
 O         2.637622         0.882335        -2.139213
 H        -0.526148        -0.588515         0.543483
 H        -0.567579         1.140086        -0.050285
 H        -0.541078        -0.060476        -1.201342
 H         1.652847         1.674014         1.676140
 H         1.859068        -0.053825         2.177046
 H         4.364957         0.773753         0.936526
 H         4.559680        -1.362484        -1.804236
 H         1.526211        -1.934860        -0.774617
 H         1.760089        -1.887637         1.020343
 H         3.137081         1.712114        -2.318350
