19
Iteration:  2296charge 0 multiplicity 1
 C        -0.177111         0.232980        -0.303061
 C         1.317833        -0.000851         0.033891
 C         1.985192         0.668791         1.284900
 C         3.410616         0.390269         0.576248
 C         3.253641        -0.880195        -0.316524
 O         4.398118        -1.477352        -0.929299
 C         1.889975        -1.518216         0.060851
 C         2.599769         0.336087        -0.825332
 O         2.721654         0.985746        -2.066376
 H        -0.712856         0.258142         0.638246
 H        -0.414197         1.339807        -0.866860
 H        -0.652954        -0.524535        -0.950566
 H         1.831885         1.778040         1.215760
 H         1.630146         0.491057         2.313758
 H         4.460330         0.823448         0.821613
 H         4.940174        -0.709286        -1.016728
 H         1.415975        -2.136358        -0.683170
 H         1.902208        -2.051065         1.032735
 H         3.061730         1.867044        -2.014285
