19
Iteration:   112
 C        -0.186414         0.229462        -0.121242
 C         1.320707         0.025210         0.083197
 C         2.126477         0.715047         1.198617
 C         3.341790         0.571751         0.354460
 C         3.266296        -0.904989        -0.209385
 O         4.305179        -1.489030        -0.906257
 C         1.868479        -1.394425         0.225740
 C         2.618784         0.275364        -0.899895
 O         2.790859         0.912936        -2.198054
 H        -0.686984        -0.368129         0.534552
 H        -0.435232         1.241108         0.170858
 H        -0.567632         0.051978        -1.166939
 H         1.926100         1.765552         1.159532
 H         2.037531         0.294053         2.153081
 H         4.278511         1.202107         0.226281
 H         5.104064        -1.724647        -0.251510
 H         1.392339        -2.154952        -0.493446
 H         1.735166        -1.802066         1.215015
 H         2.147266         0.533929        -2.768618
