19
Iteration:   812
 C        -0.033445         0.260559        -0.313509
 C         1.402784        -0.039494         0.122233
 C         2.152498         0.766697         1.300245
 C         3.388294         0.506019         0.443075
 C         3.272185        -0.816358        -0.351524
 O         4.334242        -1.606504        -0.803093
 C         1.942053        -1.481698         0.167191
 C         2.570322         0.361028        -0.901174
 O         2.355208         0.986778        -2.134747
 H        -0.726716         0.303513         0.486358
 H        -0.074514         1.309203        -0.727777
 H        -0.276758        -0.397077        -1.235105
 H         1.648285         1.797455         1.206874
 H         1.959053         0.422567         2.279956
 H         4.481056         0.759092         0.631204
 H         5.282942        -1.416884        -0.346436
 H         1.617952        -2.251709        -0.530437
 H         2.290341        -2.015743         1.078237
 H         3.148920         0.752430        -2.740909
