19
Iteration:  1359
 C        -0.150893         0.250299        -0.198732
 C         1.351369        -0.074570         0.037657
 C         2.083092         0.659475         1.274743
 C         3.333272         0.537172         0.437356
 C         3.304653        -0.795267        -0.238489
 O         4.425455        -1.359864        -0.824864
 C         1.966325        -1.492277         0.142593
 C         2.523344         0.358994        -0.865328
 O         2.638036         0.772569        -2.173292
 H        -0.738445         0.076994         0.615761
 H        -0.104433         1.367207        -0.367886
 H        -0.613947        -0.362590        -1.039004
 H         1.802047         1.675982         1.446654
 H         1.970923         0.042392         2.193485
 H         4.201653         1.107321         0.598941
 H         4.241204        -1.200255        -1.768989
 H         1.607058        -2.147877        -0.673389
 H         1.920515        -2.117868         1.091169
 H         2.505268         1.652417        -2.506171
