19
Iteration:  1044charge 0 multiplicity 1
 C        -0.211796         0.078979        -0.127299
 C         1.359206         0.018265         0.012362
 C         2.164404         0.764063         1.119453
 C         3.380593         0.491071         0.311402
 C         3.285915        -0.869644        -0.317715
 O         4.443352        -1.560954        -0.693605
 C         1.981911        -1.447831         0.189300
 C         2.540799         0.283335        -0.979095
 O         2.491361         1.156352        -2.092196
 H        -0.781149        -0.243689         0.685180
 H        -0.333241         1.206004        -0.089876
 H        -0.687017        -0.201592        -1.128542
 H         1.728592         1.828078         1.203126
 H         2.177900         0.400454         2.113220
 H         4.374257         1.043336         0.324943
 H         4.378596        -2.551971        -0.453299
 H         1.552936        -2.101512        -0.644558
 H         1.913233        -1.853435         1.241592
 H         3.440993         1.164598        -2.487294
