19
Iteration:   908charge 0 multiplicity 1
 C        -0.150369         0.131905        -0.093669
 C         1.340141         0.038814         0.051803
 C         2.099107         0.731834         1.169317
 C         3.417641         0.555375         0.395177
 C         3.265479        -0.791524        -0.280166
 O         4.357456        -1.700399        -0.748794
 C         1.906563        -1.399224         0.116699
 C         2.527644         0.364406        -0.940266
 O         2.662666         0.965939        -2.234311
 H        -0.498878        -0.398199         0.873376
 H        -0.569961         1.108927         0.064652
 H        -0.503117        -0.300477        -1.021126
 H         1.969281         1.802217         1.428440
 H         2.060601         0.098233         2.150580
 H         4.397233         1.155885         0.263615
 H         5.236778        -1.222935        -0.567715
 H         1.409706        -1.892646        -0.687768
 H         1.767644        -2.010528         1.076736
 H         2.270035         1.851879        -2.192605
