19
Iteration:  1606
 C        -0.175672         0.195133        -0.172333
 C         1.311695        -0.095890         0.028857
 C         2.068657         0.709670         1.135571
 C         3.298444         0.481365         0.328100
 C         3.206271        -0.903286        -0.369926
 O         4.464841        -1.490091        -0.824458
 C         1.941892        -1.554312         0.236748
 C         2.552226         0.314160        -0.969262
 O         2.742918         1.146010        -2.044061
 H        -0.704295        -0.471415         0.445564
 H        -0.458603         1.155831         0.191860
 H        -0.461668         0.194218        -1.178474
 H         1.692864         1.787202         1.126833
 H         1.982845         0.371240         2.152594
 H         4.174627         1.021492         0.428799
 H         4.622046        -2.179811        -0.215267
 H         1.483221        -2.216522        -0.489092
 H         1.750312        -1.994069         1.235843
 H         2.894850         2.103844        -1.732545
