19
Iteration:  3100
 C        -0.083990         0.243681        -0.288006
 C         1.338976         0.020349         0.093808
 C         2.092175         0.712216         1.299113
 C         3.337481         0.542186         0.402731
 C         3.238560        -0.862317        -0.344141
 O         4.404655        -1.628721        -0.643653
 C         1.906222        -1.527672        -0.044679
 C         2.571788         0.394793        -0.855479
 O         2.613002         1.001366        -2.104781
 H        -0.710405         0.300986         0.554645
 H        -0.174495         1.262849        -0.665634
 H        -0.473023        -0.625722        -0.858842
 H         1.863153         1.715354         1.656149
 H         2.153513         0.080619         2.331123
 H         4.373471         1.016694         0.418631
 H         4.402297        -1.761600        -1.529952
 H         1.399244        -1.758286        -1.016636
 H         1.707853        -2.321311         0.643676
 H         3.096376         1.873774        -2.016494
