19
Iteration:  2546
 C        -0.140537         0.293863        -0.191785
 C         1.334636        -0.010369        -0.085214
 C         2.015293         0.609297         1.210990
 C         3.422220         0.470227         0.484549
 C         3.278849        -0.844652        -0.267203
 O         4.453547        -1.577781        -0.633220
 C         1.905241        -1.459553        -0.083541
 C         2.642408         0.465673        -0.849477
 O         2.643206         1.031779        -2.112585
 H        -0.618665         0.067322         0.931084
 H        -0.522077         1.340528        -0.371631
 H        -0.483520        -0.443511        -0.951150
 H         1.669027         1.580005         1.224800
 H         1.914465        -0.081348         2.060792
 H         4.369119         0.716068         0.875048
 H         4.144814        -2.024301        -1.550421
 H         1.580423        -2.226352        -0.854551
 H         1.755739        -2.007509         0.915199
 H         1.895127         1.556184        -2.267661
