19
Iteration:  2115
 C        -0.110593         0.221825        -0.252376
 C         1.333889         0.019788         0.094267
 C         2.056772         0.697216         1.319655
 C         3.409905         0.475488         0.596236
 C         3.290279        -0.867920        -0.341074
 O         4.335396        -1.440379        -0.977023
 C         1.814691        -1.453854        -0.068450
 C         2.603658         0.392374        -0.776530
 O         2.675909         0.949985        -2.054927
 H        -0.684327         0.123419         0.798471
 H        -0.368577         1.062751        -0.860010
 H        -0.504730        -0.606922        -0.942044
 H         1.722917         1.748608         1.412010
 H         1.739560         0.295930         2.342659
 H         4.415572         0.889412         0.803900
 H         4.467376        -2.169834        -0.479351
 H         1.650164        -1.950995        -1.032775
 H         1.717764        -2.224689         0.738947
 H         3.614167         0.898267        -2.439463
