19
Iteration:  1285charge 0 multiplicity 1
 C        -0.180940         0.162172        -0.160473
 C         1.336006        -0.067766         0.026446
 C         2.069488         0.770313         1.168316
 C         3.306230         0.552285         0.402207
 C         3.248615        -0.866082        -0.337133
 O         4.447039        -1.414309        -0.860053
 C         1.992626        -1.525163         0.222501
 C         2.612447         0.316849        -0.877044
 O         2.626674         0.940589        -2.169753
 H        -0.599212        -0.519533         0.579926
 H        -0.475301         1.268752         0.018130
 H        -0.551038        -0.093027        -1.248272
 H         1.714392         1.878121         1.257647
 H         2.188492         0.424460         2.180566
 H         4.224680         1.022650         0.470290
 H         4.589937        -2.237795        -0.328380
 H         1.535231        -2.313455        -0.394469
 H         2.042264        -1.812097         1.252291
 H         2.278211         1.878930        -1.967187
