19
Iteration:  3529
 C        -0.081725         0.279895        -0.230514
 C         1.315630        -0.045337         0.052222
 C         2.054913         0.647497         1.211365
 C         3.428584         0.489682         0.420045
 C         3.226452        -0.884715        -0.367618
 O         4.389690        -1.594172        -0.657976
 C         1.862648        -1.519218         0.058027
 C         2.650299         0.419593        -0.861721
 O         2.587184         1.101952        -2.127988
 H        -0.769901         0.056542         0.599820
 H        -0.201557         1.341586        -0.364326
 H        -0.199266        -0.115524        -1.123972
 H         1.737456         1.753256         1.224608
 H         2.088287         0.056575         2.120781
 H         4.370064         0.945679         0.584357
 H         4.085743        -2.351836        -1.337325
 H         1.543887        -2.225134        -0.728316
 H         1.825622        -2.161300         0.962321
 H         3.142580         1.957123        -2.045502
