19
Iteration:  3277charge 0 multiplicity 1
 C        -0.102885         0.351113        -0.218316
 C         1.318343        -0.064123        -0.004351
 C         1.970214         0.716055         1.268066
 C         3.338063         0.460849         0.499660
 C         3.216232        -0.886609        -0.396621
 O         4.308892        -1.518225        -0.817465
 C         1.979458        -1.568163         0.162162
 C         2.595168         0.304389        -0.927252
 O         2.801805         0.965374        -2.111318
 H        -0.594698         0.087275         0.798475
 H        -0.204058         1.433277        -0.486238
 H        -0.710987        -0.160313        -1.154905
 H         1.689560         1.740764         1.306224
 H         1.760556         0.232938         2.269517
 H         4.287882         0.998031         0.684104
 H         5.015601        -0.822430        -1.150463
 H         1.400054        -2.281267        -0.461998
 H         2.056105        -2.001749         1.157104
 H         2.493231         1.873281        -2.012309
