19
Iteration:  1383charge 0 multiplicity 1
 C        -0.125206         0.261135        -0.150452
 C         1.354595        -0.111609         0.135187
 C         2.063834         0.725133         1.175537
 C         3.281921         0.557343         0.373883
 C         3.241438        -0.884616        -0.369092
 O         4.484926        -1.333732        -0.815013
 C         1.941833        -1.537473         0.161957
 C         2.567999         0.292666        -0.925475
 O         2.652318         0.923488        -2.104553
 H        -0.801228        -0.149480         0.569240
 H        -0.326301         1.400437        -0.232636
 H        -0.376128        -0.415711        -1.051800
 H         1.528749         1.717395         1.048452
 H         2.036268         0.381507         2.183239
 H         4.260808         0.840288         0.601117
 H         4.392537        -2.411250        -0.989181
 H         1.491035        -2.268953        -0.544697
 H         2.034885        -2.027121         1.139096
 H         2.390384         1.899307        -2.136492
