19
Iteration:   253
 C        -0.055624         0.377313        -0.385287
 C         1.355970         0.019694         0.109847
 C         2.203546         0.698357         1.199005
 C         3.433888         0.516708         0.328683
 C         3.320287        -0.856349        -0.307166
 O         4.369654        -1.658976        -0.752414
 C         1.985190        -1.431553         0.178363
 C         2.584603         0.354856        -0.867707
 O         2.288654         0.978125        -2.037521
 H        -0.833130        -0.121268         0.324571
 H        -0.315683         1.432408        -0.472195
 H        -0.186491        -0.139056        -1.370946
 H         1.864683         1.726689         1.207084
 H         2.286814         0.211393         2.276884
 H         4.427129         0.878157         0.246699
 H         4.804333        -2.214271         0.105855
 H         1.339171        -2.059066        -0.517726
 H         1.899850        -1.903902         1.133690
 H         2.971401         0.965013        -2.667798
