19
Iteration:   854
 C        -0.105428         0.174387        -0.169734
 C         1.355374        -0.062725         0.094094
 C         2.137124         0.798736         1.150758
 C         3.343567         0.491482         0.300494
 C         3.271012        -0.923941        -0.315504
 O         4.368899        -1.697806        -0.668191
 C         1.988472        -1.458760         0.128507
 C         2.519042         0.255272        -0.980745
 O         2.498152         1.197300        -2.085082
 H        -0.759729        -0.202250         0.727519
 H        -0.427007         1.211247        -0.342456
 H        -0.402609        -0.396508        -1.098977
 H         1.863902         1.874908         1.077902
 H         2.265342         0.659128         2.208711
 H         4.334525         1.071527         0.115499
 H         5.161383        -1.054408        -0.719503
 H         1.436196        -2.060626        -0.564543
 H         1.905169        -1.714879         1.269537
 H         3.365056         1.346236        -2.419121
