19
Iteration:   399charge 0 multiplicity 1
 C        -0.024943         0.277414        -0.185224
 C         1.417389        -0.019959         0.058218
 C         2.121408         0.788527         1.212661
 C         3.419081         0.496845         0.371818
 C         3.223095        -0.889966        -0.380519
 O         4.329086        -1.572750        -0.789248
 C         1.934421        -1.515223         0.138913
 C         2.556558         0.353238        -0.882091
 O         2.505058         1.052069        -2.100091
 H        -0.571719         0.523121         0.677339
 H        -0.176329         1.150576        -0.899505
 H        -0.551072        -0.616675        -0.714972
 H         1.908528         1.866613         1.187816
 H         1.918738         0.345360         2.328355
 H         4.471392         0.872758         0.352379
 H         4.843716        -1.963449         0.118372
 H         1.371352        -2.291099        -0.475007
 H         1.926496        -1.805707         1.176016
 H         2.480907         0.394171        -2.836709
