19
Iteration:  4227
 C        -0.072485         0.286878        -0.227894
 C         1.353728        -0.046790         0.062079
 C         2.104458         0.598997         1.245100
 C         3.306446         0.481617         0.376441
 C         3.159832        -0.871489        -0.411942
 O         4.442714        -1.550817        -0.624391
 C         1.890005        -1.497419        -0.009894
 C         2.568337         0.441165        -0.885361
 O         2.684804         1.025437        -2.119590
 H        -0.578256         0.438030         0.790179
 H         0.045436         1.200805        -0.763658
 H        -0.559771        -0.300074        -0.971684
 H         1.779092         1.646760         1.643700
 H         2.135271         0.317099         2.300247
 H         4.210055         0.946590         0.662340
 H         4.029907        -2.371760        -0.805330
 H         1.474070        -1.932884        -0.947777
 H         1.848903        -2.172222         0.889049
 H         2.592460         1.944701        -1.982878
