19
Iteration:  4561charge 0 multiplicity 1
 C        -0.118740         0.243371        -0.179605
 C         1.304541        -0.016843         0.027896
 C         2.082748         0.663797         1.219559
 C         3.361348         0.413923         0.459820
 C         3.253703        -0.862057        -0.368695
 O         4.405970        -1.488406        -0.662208
 C         1.861532        -1.459028        -0.003651
 C         2.584365         0.318213        -0.941268
 O         2.707141         1.154209        -2.132889
 H        -0.852979        -0.475848         0.445482
 H        -0.612616         1.165469         0.276006
 H        -0.303763         0.218831        -1.268434
 H         1.926898         1.775280         1.313704
 H         1.918053         0.140888         2.115417
 H         4.383972         0.593586         0.782847
 H         4.497563        -2.236015        -0.123293
 H         1.466446        -2.005405        -0.896596
 H         1.689969        -1.878029         0.995328
 H         2.863811         0.474899        -2.795729
