19
Iteration:   404
 C         0.006064         0.277533        -0.204097
 C         1.405123        -0.029934         0.058491
 C         2.142601         0.817244         1.193891
 C         3.407895         0.480438         0.379488
 C         3.209298        -0.909745        -0.332683
 O         4.322104        -1.583166        -0.757726
 C         1.935208        -1.582883         0.152655
 C         2.557156         0.348910        -0.900688
 O         2.470949         1.110226        -2.112303
 H        -0.642353         0.616792         0.699622
 H         0.024641         1.069209        -0.927959
 H        -0.499541        -0.470233        -0.698712
 H         1.777172         1.906464         1.239490
 H         2.062731         0.433025         2.124244
 H         4.425335         0.772190         0.232865
 H         4.682484        -1.811908        -0.008614
 H         1.468348        -2.246590        -0.530539
 H         2.248719        -2.003987         1.187271
 H         2.532030         0.517162        -2.868349
