19
Iteration:  1230charge 0 multiplicity 1
 C        -0.159326        -0.014684        -0.207220
 C         1.382531        -0.030792         0.016595
 C         2.194109         0.820162         1.184399
 C         3.434264         0.616286         0.275604
 C         3.301183        -0.882861        -0.305224
 O         4.458319        -1.610863        -0.558589
 C         1.970507        -1.418060         0.129262
 C         2.540676         0.357980        -0.921977
 O         2.367874         1.116878        -2.123408
 H        -0.603327        -0.498011         0.637161
 H        -0.647936         1.022066        -0.348663
 H        -0.386936        -0.625125        -1.178486
 H         1.768745         1.907622         1.334087
 H         2.227413         0.245944         2.107572
 H         4.478637         0.855226         0.234241
 H         4.051328        -2.108397        -1.352632
 H         1.555311        -1.923840        -0.755311
 H         1.863592        -1.951851         1.048917
 H         3.239577         1.638823        -2.169604
