19
Iteration:  1350charge 0 multiplicity 1
 C        -0.123805         0.255938        -0.199465
 C         1.333890        -0.050267         0.098295
 C         2.102589         0.598314         1.264994
 C         3.321784         0.567085         0.468381
 C         3.297630        -0.748239        -0.241607
 O         4.377266        -1.385785        -0.857587
 C         1.982257        -1.443168         0.099594
 C         2.543867         0.412394        -0.844031
 O         2.623791         0.677052        -2.182074
 H        -0.733191         0.027039         0.646354
 H        -0.452143         1.286497        -0.614732
 H        -0.481483        -0.381422        -1.115735
 H         1.663107         1.616161         1.459124
 H         2.134082         0.044782         2.183677
 H         4.224618         0.968442         0.712893
 H         4.632039        -0.904305        -1.610461
 H         1.700889        -2.060592        -0.770025
 H         1.912549        -1.965145         1.053378
 H         2.621782         1.623559        -2.366675
