19
Iteration:  2093charge 0 multiplicity 1
 C        -0.125624         0.330476        -0.204483
 C         1.374741        -0.011966        -0.009506
 C         1.982561         0.528506         1.247567
 C         3.336808         0.500019         0.532610
 C         3.302637        -0.843871        -0.242697
 O         4.385740        -1.466159        -0.875359
 C         1.928195        -1.426541        -0.001585
 C         2.682339         0.481940        -0.826131
 O         2.610394         0.959062        -2.062970
 H        -0.593889         0.027295         0.843792
 H        -0.407691         1.269348        -0.616272
 H        -0.623381        -0.345998        -0.985346
 H         1.722717         1.588739         1.392303
 H         1.821526        -0.031829         2.220542
 H         4.341109         0.730053         0.970747
 H         3.981239        -2.397611        -1.235310
 H         1.596382        -1.878475        -0.943152
 H         1.949481        -2.123597         0.840336
 H         3.233523         0.615564        -2.726314
