19
Iteration:  1893charge 0 multiplicity 1
 C        -0.050969         0.304280        -0.306126
 C         1.362239        -0.053210        -0.024216
 C         2.039193         0.574561         1.356138
 C         3.362505         0.585912         0.488869
 C         3.307067        -0.803521        -0.298990
 O         4.412458        -1.544565        -0.700348
 C         1.915631        -1.482542        -0.064078
 C         2.575388         0.438526        -0.823727
 O         2.504236         0.947049        -2.097993
 H        -0.562588         0.086825         0.732782
 H        -0.245979         1.346876        -0.368233
 H        -0.557397        -0.291659        -1.065391
 H         1.712967         1.538738         1.644918
 H         2.111764        -0.163596         2.095066
 H         4.247784         1.046427         0.917774
 H         4.436193        -1.842947        -1.749959
 H         1.687158        -1.797087        -1.031638
 H         1.707930        -2.179221         0.720168
 H         3.393864         1.079515        -2.355477
