19
Iteration:  4863
 C        -0.161610         0.258451        -0.240805
 C         1.297754         0.016911         0.116360
 C         1.996420         0.627052         1.297193
 C         3.377862         0.492791         0.489220
 C         3.210703        -0.861313        -0.291745
 O         4.387571        -1.505577        -0.801133
 C         1.831366        -1.477066        -0.016173
 C         2.613885         0.412081        -0.857698
 O         2.812382         0.885149        -2.116991
 H        -0.845677         0.382182         0.590992
 H        -0.110266         1.343948        -0.678827
 H        -0.549777        -0.472336        -1.082428
 H         1.765701         1.664241         1.373396
 H         1.802857         0.149985         2.244304
 H         4.416241         0.746776         0.812080
 H         4.588859        -1.306783        -1.745134
 H         1.388767        -1.824702        -0.912232
 H         1.864817        -2.107706         0.831973
 H         3.221059         1.745167        -2.000383
