19
Iteration:  2594charge 0 multiplicity 1
 C        -0.138721         0.258305        -0.333879
 C         1.356464        -0.041030         0.094116
 C         2.117883         0.616431         1.212310
 C         3.332637         0.462012         0.376305
 C         3.156910        -0.900232        -0.378525
 O         4.419010        -1.502446        -0.685033
 C         1.885112        -1.508560         0.146114
 C         2.567268         0.412420        -0.849455
 O         2.724766         1.144890        -2.026311
 H        -0.822075        -0.372515         0.120085
 H        -0.449718         1.308491        -0.026534
 H        -0.234200         0.177455        -1.418479
 H         1.973397         1.751084         1.248236
 H         2.127486         0.017190         2.195548
 H         4.409957         0.739634         0.576037
 H         4.291585        -1.666467        -1.546895
 H         1.481171        -2.172690        -0.627747
 H         1.867390        -2.098115         1.126058
 H         2.464574         0.484554        -2.761717
