19
Iteration:  1030charge 0 multiplicity 1
 C        -0.145941         0.200686        -0.185417
 C         1.327618        -0.061085         0.055915
 C         2.146294         0.758335         1.164162
 C         3.400190         0.618089         0.289570
 C         3.292962        -0.916200        -0.285555
 O         4.451568        -1.569738        -0.729576
 C         1.935593        -1.473832         0.118896
 C         2.593162         0.414433        -0.901236
 O         2.444910         1.022920        -2.106527
 H        -0.547157        -0.316489         0.668817
 H        -0.628172         1.162213        -0.303511
 H        -0.453030        -0.493430        -0.993747
 H         1.950918         1.885865         1.164282
 H         2.145477         0.274854         2.170962
 H         4.333464         0.974583         0.448581
 H         4.334662        -2.562042        -0.470781
 H         1.510605        -2.187038        -0.556591
 H         1.926029        -1.961475         1.114698
 H         3.217191         1.523055        -2.250875
