19
Iteration:  1316charge 0 multiplicity 1
 C        -0.065753         0.155467        -0.209835
 C         1.335741        -0.023134         0.141479
 C         2.104594         0.714738         1.327363
 C         3.281674         0.598111         0.471156
 C         3.253466        -0.774647        -0.253781
 O         4.318731        -1.405567        -0.953259
 C         1.960485        -1.440481         0.045489
 C         2.552729         0.440660        -0.822877
 O         2.683674         0.677014        -2.200460
 H        -0.662658        -0.282973         0.539361
 H        -0.446321         1.229676        -0.345369
 H        -0.248023        -0.577119        -1.084015
 H         1.746890         1.737984         1.380474
 H         2.284998         0.285987         2.317964
 H         4.226379         1.028382         0.689385
 H         5.145543        -1.225952        -0.544829
 H         1.580426        -1.958515        -0.845410
 H         1.759044        -2.104768         0.904260
 H         2.234911         1.499639        -2.253110
