19
Iteration:   556charge 0 multiplicity 1
 C        -0.122257         0.224367        -0.084324
 C         1.336933         0.043398         0.106877
 C         2.122221         0.786725         1.237518
 C         3.353830         0.586735         0.401529
 C         3.221456        -0.865486        -0.313611
 O         4.283269        -1.488731        -0.935548
 C         1.888933        -1.450459         0.140619
 C         2.563801         0.357249        -0.879371
 O         2.728716         0.802958        -2.175013
 H        -0.771777        -0.339669         0.707893
 H        -0.348076         1.279608         0.116529
 H        -0.456017        -0.008724        -1.041026
 H         1.801267         1.901055         1.175955
 H         1.939107         0.343446         2.276868
 H         4.339705         1.141376         0.397014
 H         4.938458        -1.956671        -0.220661
 H         1.364715        -1.874040        -0.696130
 H         1.803721        -2.201177         0.994327
 H         3.549386         0.527265        -2.567573
