19
Iteration:  3421
 C        -0.208796         0.306847        -0.129856
 C         1.340209         0.047208         0.014372
 C         2.039630         0.614468         1.282392
 C         3.385095         0.531673         0.519958
 C         3.265624        -0.853579        -0.314128
 O         4.357456        -1.520079        -0.749858
 C         1.877834        -1.432439        -0.042221
 C         2.664207         0.378996        -0.874256
 O         2.742620         0.806234        -2.156640
 H        -0.863775        -0.381899         0.369963
 H        -0.470157         1.353245         0.050280
 H        -0.668409         0.117946        -1.193043
 H         1.744265         1.666332         1.579511
 H         1.930156         0.052107         2.197652
 H         4.388579         0.939747         0.688907
 H         4.539749        -1.298768        -1.754524
 H         1.564170        -1.912543        -0.958876
 H         1.773860        -2.026956         0.899453
 H         2.837026         1.813633        -2.152396
