19
Iteration:  4960
 C        -0.020767         0.203464        -0.406756
 C         1.408001         0.014061         0.075597
 C         2.121223         0.676745         1.276602
 C         3.383309         0.599835         0.436733
 C         3.177403        -0.869887        -0.294462
 O         4.315759        -1.680048        -0.669808
 C         1.861253        -1.442413         0.024659
 C         2.632181         0.359027        -0.845421
 O         2.610338         1.027865        -2.062885
 H        -0.633145        -0.455049         0.172145
 H        -0.503214         1.132262        -0.195819
 H        -0.173408        -0.035572        -1.418551
 H         1.941648         1.797521         1.354996
 H         1.997674         0.076597         2.243376
 H         4.444636         0.947461         0.534571
 H         4.313367        -1.751456        -1.696159
 H         1.343874        -1.866307        -0.842914
 H         1.650928        -1.947458         0.953766
 H         2.785831         2.069765        -1.881562
