19
Iteration:   380charge 0 multiplicity 1
 C        -0.192872         0.238576        -0.162073
 C         1.299358         0.070062         0.090318
 C         2.155166         0.703571         1.193048
 C         3.371037         0.549103         0.389015
 C         3.271711        -0.882545        -0.281463
 O         4.391698        -1.569255        -0.921946
 C         1.864299        -1.351494         0.193821
 C         2.635249         0.340782        -0.884346
 O         2.643328         0.924950        -2.131963
 H        -0.733644         0.259802         0.814537
 H        -0.385077         1.199579        -0.659442
 H        -0.601909        -0.510123        -0.772961
 H         1.808953         1.767310         1.393189
 H         2.258353         0.186368         2.123452
 H         4.310861         0.989489         0.592825
 H         4.902944        -2.009135        -0.063506
 H         1.498726        -1.818619        -0.641926
 H         1.946513        -2.032844         1.055808
 H         2.323940         0.294895        -2.752979
