19
Iteration:  2611
 C        -0.131324         0.293797        -0.320923
 C         1.381443        -0.014989        -0.029158
 C         2.010645         0.609437         1.279898
 C         3.377476         0.435246         0.455797
 C         3.248799        -0.897983        -0.306105
 O         4.405019        -1.520544        -0.793022
 C         1.906039        -1.449953         0.181104
 C         2.567242         0.270279        -0.889887
 O         2.675172         1.166484        -2.040665
 H        -0.953531        -0.432017         0.180212
 H        -0.413102         1.277418         0.111673
 H        -0.271040         0.264943        -1.413276
 H         1.723051         1.659485         1.442743
 H         1.880368         0.053027         2.177721
 H         4.323248         1.004573         0.572687
 H         4.345149        -1.934127        -1.649442
 H         1.442199        -2.387414        -0.198127
 H         1.984253        -1.564018         1.246575
 H         3.072017         0.808901        -2.880359
