19
Iteration:  2346
 C        -0.180754         0.279330        -0.258924
 C         1.315032        -0.081861         0.053956
 C         2.086829         0.613749         1.343211
 C         3.280783         0.606002         0.455062
 C         3.294161        -0.834622        -0.299613
 O         4.367133        -1.598354        -0.756232
 C         1.922966        -1.508549        -0.064899
 C         2.589546         0.433532        -0.873636
 O         2.828508         1.019972        -2.049467
 H        -0.828431         0.273185         0.653449
 H        -0.305666         1.137146        -0.748524
 H        -0.584014        -0.406765        -1.024287
 H         1.618096         1.440877         1.869814
 H         2.243113        -0.014247         2.282990
 H         4.181446         1.222748         0.758657
 H         4.218978        -1.853279        -1.774166
 H         1.610815        -1.835977        -1.129817
 H         1.827481        -2.237272         0.764961
 H         1.934942         1.466105        -2.321414
