19
Iteration:  3776charge 0 multiplicity 1
 C        -0.022102         0.262772        -0.336489
 C         1.393690        -0.069287         0.057551
 C         2.137509         0.704082         1.245625
 C         3.396585         0.514836         0.349751
 C         3.224995        -0.892280        -0.300553
 O         4.352819        -1.687823        -0.565720
 C         1.905135        -1.555042         0.074826
 C         2.571586         0.358397        -0.910617
 O         2.478459         1.252418        -2.116096
 H        -0.673633        -0.409623         0.275709
 H        -0.195693         1.325588        -0.358882
 H        -0.268305        -0.268906        -1.314389
 H         1.875505         1.795421         1.446656
 H         2.163944         0.302574         2.286706
 H         4.490184         0.758414         0.421319
 H         4.295279        -2.115485        -1.406516
 H         1.588878        -1.970882        -0.923851
 H         1.678551        -2.195007         0.950478
 H         3.184794         1.894711        -1.925938
