19
Iteration:  1629
 C        -0.171053         0.138951        -0.235436
 C         1.332172        -0.047879         0.034298
 C         2.057477         0.742861         1.166554
 C         3.355911         0.504138         0.437055
 C         3.304264        -0.861812        -0.370859
 O         4.334772        -1.673285        -0.808801
 C         2.006281        -1.470382         0.103333
 C         2.574425         0.329819        -0.918412
 O         2.615828         1.150452        -2.032167
 H        -0.783575        -0.525917         0.402828
 H        -0.506128         1.092251         0.013800
 H        -0.313406         0.098367        -1.258695
 H         1.632417         1.768678         1.179145
 H         1.941336         0.354804         2.201156
 H         4.309641         1.093238         0.471610
 H         5.261142        -1.487585        -0.311663
 H         1.554238        -2.239738        -0.497707
 H         1.868225        -1.783518         1.166932
 H         3.044213         1.988400        -1.824043
