19
Iteration:  3094charge 0 multiplicity 1
 C        -0.088405         0.283145        -0.253163
 C         1.317309        -0.007910         0.086640
 C         2.080418         0.688222         1.263855
 C         3.357370         0.567261         0.456522
 C         3.214943        -0.882034        -0.323658
 O         4.410915        -1.601212        -0.660859
 C         1.911505        -1.576779        -0.035347
 C         2.615379         0.394354        -0.876499
 O         2.637285         1.002206        -2.129198
 H        -0.718473         0.283542         0.737577
 H        -0.175543         1.289320        -0.703058
 H        -0.625614        -0.418294        -0.915495
 H         1.802055         1.719279         1.609749
 H         2.041843         0.109538         2.183293
 H         4.236262         1.139688         0.519683
 H         4.238464        -1.778621        -1.660853
 H         1.473932        -1.939667        -0.965503
 H         1.756319        -2.324228         0.804820
 H         3.036813         1.931726        -2.088242
