19
Iteration:   526charge 0 multiplicity 1
 C        -0.215919         0.213157         0.022262
 C         1.318791         0.044424         0.041097
 C         2.100791         0.719294         1.141735
 C         3.409397         0.541271         0.429623
 C         3.203617        -0.850734        -0.296429
 O         4.295796        -1.449118        -0.947383
 C         1.859254        -1.483737         0.242985
 C         2.591750         0.422298        -0.919752
 O         2.823329         0.871920        -2.222113
 H        -0.755724        -0.574161         0.578411
 H        -0.540741         1.151483         0.411618
 H        -0.636889         0.140061        -1.003751
 H         1.808194         1.862710         1.037823
 H         1.822294         0.507453         2.162306
 H         4.446566         0.984802         0.613373
 H         4.770818        -2.239943        -0.349521
 H         1.364577        -2.115623        -0.491008
 H         1.947654        -1.881107         1.250219
 H         3.391740         0.165609        -2.753776
