19
Iteration:  2062charge 0 multiplicity 1
 C        -0.094322         0.369289        -0.248679
 C         1.295675        -0.118942         0.090833
 C         2.150571         0.543973         1.330659
 C         3.270098         0.492046         0.332931
 C         3.201137        -0.872585        -0.385984
 O         4.438194        -1.454113        -0.660483
 C         1.875985        -1.548377         0.046209
 C         2.543302         0.386132        -0.866628
 O         2.702164         1.108964        -2.083977
 H        -0.893225        -0.036837         0.435445
 H        -0.149195         1.498182        -0.093475
 H        -0.373453        -0.008318        -1.264962
 H         1.811856         1.545085         1.515328
 H         2.213903         0.057282         2.320732
 H         4.252546         0.951324         0.474647
 H         4.555246        -1.575553        -1.577052
 H         1.343078        -2.157281        -0.728631
 H         2.028995        -2.282402         0.823140
 H         2.792414         0.549889        -2.880472
