19
Iteration:  1188charge 0 multiplicity 1
 C        -0.095611         0.212740        -0.266856
 C         1.343448        -0.057568         0.103783
 C         2.055399         0.750968         1.202272
 C         3.369502         0.585250         0.353288
 C         3.248980        -0.829398        -0.325927
 O         4.423425        -1.503418        -0.725299
 C         2.039708        -1.575393         0.213728
 C         2.607602         0.343594        -0.918578
 O         2.386216         0.932833        -2.117711
 H        -0.579366         0.154965         0.685628
 H        -0.078669         1.275504        -0.549524
 H        -0.581528        -0.271632        -1.099433
 H         1.608992         1.835999         1.378288
 H         2.222876         0.229943         2.149918
 H         4.341954         0.883976         0.545560
 H         4.962390        -1.181257        -1.370146
 H         1.599130        -2.268508        -0.571083
 H         2.220745        -1.961187         1.223080
 H         3.223627         1.293135        -2.546456
