19
Iteration:  4904
 C        -0.122277         0.346636        -0.087759
 C         1.278554        -0.069939        -0.023704
 C         2.001354         0.573455         1.091763
 C         3.324333         0.442039         0.421398
 C         3.236651        -0.891716        -0.342563
 O         4.440427        -1.458277        -0.638718
 C         1.824884        -1.432078         0.027513
 C         2.596732         0.337331        -0.946563
 O         2.867037         1.014370        -2.095746
 H        -0.720957        -0.130024         0.634496
 H        -0.294588         1.378372         0.008713
 H        -0.588466         0.000203        -0.921621
 H         1.655372         1.530752         1.597269
 H         1.845653        -0.045466         2.024781
 H         4.345575         0.839846         0.377903
 H         4.148764        -2.139897        -1.343206
 H         1.449240        -2.143452        -0.724704
 H         1.640377        -1.879846         1.013544
 H         2.666661         2.052745        -1.903418
