19
Iteration:  1100charge 0 multiplicity 1
 C        -0.179979         0.077514        -0.159494
 C         1.320948         0.056484         0.118819
 C         2.130025         0.737568         1.195839
 C         3.386709         0.571215         0.346544
 C         3.310451        -0.830801        -0.253747
 O         4.406546        -1.521941        -0.717750
 C         1.949081        -1.425674         0.127154
 C         2.537547         0.359709        -0.918955
 O         2.694011         0.969219        -2.167121
 H        -0.622441        -0.497255         0.626097
 H        -0.724989         1.049933        -0.136928
 H        -0.484464        -0.404389        -1.116623
 H         1.659063         1.769066         1.162813
 H         2.182034         0.276230         2.166896
 H         4.294308         1.270186         0.379075
 H         4.086218        -1.993667        -1.657446
 H         1.580679        -2.175028        -0.662665
 H         1.937091        -1.985502         1.116202
 H         1.776234         1.017663        -2.492596
