19
Iteration:   818
 C        -0.064632         0.273838        -0.323918
 C         1.390184        -0.054932         0.100022
 C         2.141409         0.755675         1.221650
 C         3.397844         0.519430         0.457644
 C         3.258674        -0.864098        -0.330550
 O         4.344266        -1.633162        -0.796555
 C         1.972840        -1.472613         0.160548
 C         2.642299         0.376539        -0.900538
 O         2.344868         1.015838        -2.107480
 H        -0.796162         0.136965         0.610346
 H        -0.122456         1.276540        -0.687498
 H        -0.367912        -0.384824        -1.066667
 H         1.759084         1.719042         1.051602
 H         2.094018         0.363404         2.311469
 H         4.416113         0.891311         0.540404
 H         5.199274        -1.178644        -0.409822
 H         1.468682        -2.304734        -0.387630
 H         2.098701        -1.886093         1.222764
 H         3.082850         0.864804        -2.646309
