19
Iteration:  4017charge 0 multiplicity 1
 C        -0.099102         0.272174        -0.348735
 C         1.352988        -0.022603         0.044717
 C         2.149256         0.610349         1.186888
 C         3.418030         0.465097         0.434285
 C         3.208156        -0.885595        -0.387836
 O         4.390637        -1.560447        -0.607217
 C         1.869124        -1.497660         0.101237
 C         2.560940         0.396343        -0.892358
 O         2.612656         1.048463        -2.070785
 H        -0.686695         0.371177         0.592651
 H        -0.358948         1.210950        -0.720598
 H        -0.459750        -0.317459        -1.173862
 H         1.895497         1.691214         1.441229
 H         2.037543         0.213416         2.257250
 H         4.393204         0.961762         0.546044
 H         4.345745        -1.866975        -1.629494
 H         1.478331        -2.242661        -0.634976
 H         1.977573        -1.902176         1.114561
 H         2.550206         2.038819        -1.902818
