19
Iteration:   810charge 0 multiplicity 1
 C        -0.013435         0.260031        -0.323506
 C         1.401161        -0.030660         0.126111
 C         2.145104         0.770310         1.314185
 C         3.389307         0.506527         0.434778
 C         3.269225        -0.812291        -0.357256
 O         4.331462        -1.597976        -0.806109
 C         1.947400        -1.488555         0.165486
 C         2.545977         0.357119        -0.896504
 O         2.365701         0.976310        -2.143962
 H        -0.794367         0.307927         0.526975
 H        -0.046900         1.273567        -0.724113
 H        -0.263403        -0.364686        -1.193883
 H         1.702001         1.784184         1.278190
 H         1.938920         0.423248         2.291158
 H         4.498623         0.761893         0.660443
 H         5.289326        -1.458357        -0.317039
 H         1.642045        -2.183776        -0.591889
 H         2.289267        -2.060195         1.121761
 H         3.091216         0.741602        -2.716857
