19
Iteration:  1042
 C        -0.218222         0.094158        -0.142403
 C         1.361459         0.011929         0.021789
 C         2.172923         0.765381         1.110781
 C         3.385307         0.502301         0.302711
 C         3.279006        -0.875951        -0.297518
 O         4.445443        -1.575305        -0.696422
 C         1.981050        -1.446935         0.171610
 C         2.544020         0.303405        -0.967163
 O         2.486183         1.139574        -2.089576
 H        -0.735118        -0.256221         0.696403
 H        -0.344675         1.192447        -0.091641
 H        -0.696420        -0.251776        -1.116152
 H         1.702924         1.823788         1.227410
 H         2.214810         0.382006         2.135763
 H         4.286844         1.015413         0.381504
 H         4.431303        -2.428692        -0.508662
 H         1.553288        -2.097936        -0.599566
 H         1.938414        -1.844120         1.208204
 H         3.408975         1.219917        -2.463175
