19
Iteration:  1293
 C        -0.188175         0.159648        -0.186174
 C         1.331400        -0.079182         0.052897
 C         2.103701         0.768630         1.168838
 C         3.387937         0.546721         0.436016
 C         3.256489        -0.822644        -0.304188
 O         4.386866        -1.383448        -0.885409
 C         1.987544        -1.502566         0.200930
 C         2.592334         0.363098        -0.884958
 O         2.647151         0.864827        -2.148943
 H        -0.791882        -0.391547         0.500918
 H        -0.483895         1.232718         0.039556
 H        -0.586367        -0.255149        -1.176762
 H         1.685166         1.733682         1.226266
 H         1.953999         0.211167         2.126827
 H         4.357845         1.145901         0.346640
 H         4.840387        -2.127188        -0.266797
 H         1.502150        -2.167855        -0.521979
 H         1.903069        -2.022790         1.191983
 H         2.163443         1.765289        -2.033190
