19
Iteration:  1115
 C        -0.089988         0.094594        -0.169564
 C         1.353634        -0.023315         0.057630
 C         2.107303         0.754398         1.268445
 C         3.342153         0.566312         0.382480
 C         3.245527        -0.808388        -0.284637
 O         4.399767        -1.480821        -0.756994
 C         1.943543        -1.416414         0.171171
 C         2.557385         0.412502        -0.888491
 O         2.648059         0.839848        -2.204535
 H        -0.771618        -0.404402         0.672811
 H        -0.366396         1.120884        -0.314314
 H        -0.305414        -0.391566        -1.095297
 H         2.048785         1.757103         1.417275
 H         1.991566         0.181480         2.235633
 H         4.298601         0.917075         0.498055
 H         4.502583        -1.342415        -1.637568
 H         1.497727        -1.872889        -0.717667
 H         1.764359        -1.960548         1.115355
 H         1.803639         1.322091        -2.536345
