19
Iteration:  4949charge 0 multiplicity 1
 C        -0.060898         0.162180        -0.297634
 C         1.352279         0.026569         0.078794
 C         2.142112         0.666002         1.250285
 C         3.392677         0.494172         0.441802
 C         3.236097        -0.883388        -0.386819
 O         4.278194        -1.640345        -0.593171
 C         1.852434        -1.390940        -0.023746
 C         2.631875         0.419303        -0.862318
 O         2.647708         1.020809        -2.086031
 H        -0.734737        -0.510230         0.090345
 H        -0.334083         1.197734        -0.190979
 H        -0.044118        -0.019070        -1.342756
 H         1.751197         1.737295         1.221949
 H         2.149907         0.472104         2.353427
 H         4.328816         1.059063         0.678127
 H         4.255341        -1.966575        -1.567232
 H         1.512181        -1.859524        -0.950096
 H         1.788154        -2.148443         0.742550
 H         2.689598         2.046464        -1.867078
