19
Iteration:  2764
 C        -0.096101         0.196105        -0.360216
 C         1.382142         0.114895         0.061389
 C         2.069789         0.560840         1.304103
 C         3.388063         0.402872         0.541634
 C         3.202282        -0.891612        -0.415530
 O         4.358222        -1.490564        -0.766449
 C         1.888014        -1.416450         0.125079
 C         2.640066         0.514273        -0.797918
 O         2.666382         0.951392        -2.160277
 H        -0.637177        -0.300982         0.468137
 H        -0.502873         1.137568        -0.554480
 H        -0.179779        -0.316201        -1.256989
 H         1.971019         1.746212         1.386448
 H         1.930067         0.081076         2.344205
 H         4.380411         0.650826         0.871640
 H         4.148262        -2.007102        -1.578187
 H         1.410950        -2.142822        -0.565437
 H         1.886467        -1.851364         1.119958
 H         2.249954         1.890570        -2.214472
