19
Iteration:  4388
 C        -0.160394         0.349837        -0.249881
 C         1.363080        -0.012416         0.005229
 C         2.096994         0.617596         1.201871
 C         3.416831         0.467299         0.398096
 C         3.261071        -0.936371        -0.337359
 O         4.463855        -1.485374        -0.619148
 C         1.873396        -1.509829         0.044962
 C         2.556957         0.368465        -0.900613
 O         2.584879         1.049649        -2.112360
 H        -0.878565         0.184629         0.475654
 H        -0.319482         1.352650        -0.744029
 H        -0.448645        -0.323391        -1.057173
 H         1.966763         1.593489         1.742395
 H         2.042448         0.034759         2.215950
 H         4.492343         0.726917         0.430637
 H         4.276855        -2.342948        -1.089266
 H         1.266088        -2.142843        -0.682162
 H         1.790579        -2.092720         0.970689
 H         2.876186         1.879846        -1.810662
