19
Iteration:  1973charge 0 multiplicity 1
 C        -0.109265         0.111941        -0.326778
 C         1.335547        -0.012485         0.040673
 C         2.133936         0.655355         1.333694
 C         3.369072         0.498714         0.391630
 C         3.202824        -0.819771        -0.300793
 O         4.360396        -1.531928        -0.799746
 C         1.912615        -1.450751         0.085905
 C         2.550529         0.409356        -0.864286
 O         2.682103         1.109282        -2.078390
 H        -0.905317        -0.426365         0.318155
 H        -0.356508         1.117140        -0.548434
 H        -0.249825        -0.389858        -1.344526
 H         1.774667         1.583955         1.704414
 H         2.077083         0.092308         2.279283
 H         4.386377         0.945539         0.541746
 H         4.038338        -2.440364        -1.123624
 H         1.405667        -2.132422        -0.645545
 H         1.880816        -2.033618         1.023793
 H         3.263293         1.777146        -1.782037
