19
Iteration:  1548charge 0 multiplicity 1
 C        -0.129069         0.179905        -0.202648
 C         1.344572         0.026074         0.064367
 C         2.061163         0.554282         1.344511
 C         3.327372         0.593895         0.452566
 C         3.293926        -0.773397        -0.244713
 O         4.318156        -1.499063        -0.774293
 C         1.968795        -1.383919        -0.014604
 C         2.654966         0.426411        -0.860470
 O         2.656621         0.781100        -2.170078
 H        -0.646697        -0.074862         0.608209
 H        -0.367344         1.275830        -0.378461
 H        -0.537549        -0.506492        -0.996773
 H         1.654155         1.586120         1.556873
 H         1.888699        -0.115230         2.159387
 H         4.425114         0.953962         0.531255
 H         4.677744        -0.884373        -1.614733
 H         1.717165        -1.810386        -1.035911
 H         1.659846        -2.081550         0.804169
 H         2.411436         1.686789        -2.291971
