19
Iteration:  3103
 C        -0.086673         0.228852        -0.299574
 C         1.359850         0.023285         0.096088
 C         2.108537         0.709495         1.321225
 C         3.337358         0.531499         0.374098
 C         3.255055        -0.859911        -0.349954
 O         4.394718        -1.632766        -0.624778
 C         1.893344        -1.476517        -0.054663
 C         2.546521         0.395517        -0.846302
 O         2.599751         0.999801        -2.090671
 H        -0.723832         0.289040         0.525148
 H        -0.206408         1.179057        -0.735002
 H        -0.379588        -0.658245        -0.898059
 H         1.854392         1.773820         1.578178
 H         2.191427         0.041745         2.365519
 H         4.353639         0.870381         0.409068
 H         4.523812        -1.794266        -1.642455
 H         1.412229        -1.717002        -1.012177
 H         1.709191        -2.315754         0.638342
 H         3.118890         1.858251        -1.968200
