19
Iteration:  2944charge 0 multiplicity 1
 C        -0.092652         0.312593        -0.294410
 C         1.273628        -0.085583         0.151306
 C         2.164308         0.708466         1.158619
 C         3.356915         0.481008         0.306290
 C         3.185200        -0.989668        -0.392824
 O         4.455924        -1.464084        -0.686960
 C         1.807864        -1.549788         0.172266
 C         2.588371         0.221949        -0.912779
 O         2.681697         1.110196        -1.991276
 H        -0.874976         0.144768         0.353891
 H        -0.126185         1.331444        -0.727049
 H        -0.300391        -0.267887        -1.147677
 H         1.826583         1.761978         1.046053
 H         2.067881         0.168064         2.207308
 H         4.265541         1.045361         0.330683
 H         4.600235        -1.460224        -1.718378
 H         1.332588        -2.197266        -0.540036
 H         1.829048        -2.045630         1.154540
 H         2.514475         2.017378        -1.664659
