19
Iteration:  3613
 C        -0.126323         0.328727        -0.248929
 C         1.273216        -0.012302         0.052564
 C         2.047148         0.657644         1.215560
 C         3.366498         0.494614         0.431178
 C         3.242095        -0.885160        -0.332619
 O         4.388688        -1.533560        -0.795634
 C         1.913465        -1.546145         0.105184
 C         2.594320         0.362370        -0.812589
 O         2.760982         0.984677        -2.072008
 H        -0.870718        -0.217723         0.387358
 H        -0.242348         1.448209        -0.094999
 H        -0.470258         0.009458        -1.335684
 H         1.768175         1.669095         1.259861
 H         1.989192         0.430940         2.274589
 H         4.318401         0.944072         0.527210
 H         4.239069        -1.931804        -1.601261
 H         1.486311        -2.079158        -0.792270
 H         1.851340        -2.163229         0.995142
 H         2.555192         1.899339        -1.962719
