19
Iteration:  3127
 C        -0.118789         0.149687        -0.392315
 C         1.358774         0.043176         0.043207
 C         2.203444         0.640493         1.222523
 C         3.468797         0.424737         0.436098
 C         3.198244        -0.876477        -0.361144
 O         4.354129        -1.617756        -0.581668
 C         1.836884        -1.467196         0.064988
 C         2.656272         0.444893        -0.863129
 O         2.498561         1.119315        -2.093396
 H        -0.823935         0.128087         0.519786
 H        -0.317644         1.138940        -0.821186
 H        -0.300396        -0.662120        -1.071757
 H         2.090383         1.762555         1.401621
 H         2.169544         0.089788         2.257547
 H         4.429172         0.851621         0.581064
 H         4.535187        -1.573477        -1.455139
 H         1.342401        -2.045320        -0.696166
 H         1.761644        -2.024138         1.059983
 H         2.958191         2.024429        -2.075753
