19
Iteration:  2889charge 0 multiplicity 1
 C        -0.102217         0.220395        -0.222843
 C         1.335920        -0.063827         0.032229
 C         2.112177         0.613909         1.325980
 C         3.349277         0.638185         0.466562
 C         3.275966        -0.821121        -0.259230
 O         4.373462        -1.604497        -0.740695
 C         1.915868        -1.444446        -0.093239
 C         2.574677         0.535365        -0.825936
 O         2.665141         0.908615        -2.158185
 H        -0.693749         0.128288         0.632398
 H        -0.103115         1.314639        -0.467541
 H        -0.473787        -0.456659        -0.954754
 H         1.559607         1.535317         1.652144
 H         1.992633         0.011405         2.298827
 H         4.393618         1.030242         0.649358
 H         3.856656        -2.463721        -1.145518
 H         1.602180        -1.808423        -1.054557
 H         1.580860        -2.172030         0.674485
 H         2.870162         1.902395        -2.288744
