19
Iteration:  1477charge 0 multiplicity 1
 C        -0.123335         0.183320        -0.254229
 C         1.310147        -0.092308         0.024255
 C         2.060545         0.709180         1.206919
 C         3.406809         0.495335         0.337194
 C         3.256265        -0.897141        -0.306295
 O         4.480167        -1.408941        -0.771750
 C         1.926452        -1.500661         0.188300
 C         2.580421         0.357048        -0.874733
 O         2.548991         1.032642        -2.087639
 H        -0.813490        -0.332102         0.595102
 H        -0.284385         1.227061        -0.303233
 H        -0.432349        -0.352416        -1.115195
 H         1.706544         1.713226         1.131209
 H         2.172394         0.381816         2.304392
 H         4.323788         0.947566         0.380736
 H         4.329319        -2.388627        -1.099670
 H         1.476032        -2.153845        -0.549257
 H         1.868978        -1.951930         1.195917
 H         2.916829         1.906515        -1.953989
