19
Iteration:  1946charge 0 multiplicity 1
 C        -0.143016         0.236513        -0.255504
 C         1.324167        -0.055187         0.013734
 C         2.085310         0.622191         1.269569
 C         3.339507         0.376426         0.401847
 C         3.163337        -0.924347        -0.378821
 O         4.472910        -1.359522        -0.740061
 C         1.850170        -1.512374         0.122929
 C         2.610663         0.360378        -0.879548
 O         2.658995         1.099919        -2.048359
 H        -0.884556         0.025945         0.517094
 H        -0.281762         1.351532        -0.591325
 H        -0.422848        -0.397187        -1.073502
 H         1.785728         1.716979         1.355848
 H         1.967515         0.169540         2.262632
 H         4.380893         0.741154         0.558989
 H         4.472958        -1.841692        -1.690387
 H         1.345955        -2.213447        -0.513910
 H         1.915465        -1.846760         1.167054
 H         3.583654         1.240230        -2.208815
