19
Iteration:   100charge 0 multiplicity 1
 C        -0.110489         0.266706        -0.154685
 C         1.347872         0.015808         0.011400
 C         2.106160         0.765908         1.167030
 C         3.388963         0.500472         0.354703
 C         3.214286        -0.850253        -0.316366
 O         4.328885        -1.519007        -0.842866
 C         1.904444        -1.453958         0.280431
 C         2.564396         0.328324        -0.930752
 O         2.717811         0.885981        -2.143679
 H        -0.677250        -0.523271         0.298882
 H        -0.437724         1.230536         0.227973
 H        -0.405300         0.214122        -1.178381
 H         1.881763         1.762011         1.346723
 H         2.071496         0.288538         2.103096
 H         4.389422         0.989581         0.622991
 H         4.965264        -1.532860        -0.242746
 H         1.461617        -2.247692        -0.378543
 H         1.910409        -1.749313         1.318258
 H         1.845496         0.848645        -2.590452
