19
Iteration:  1213charge 0 multiplicity 1
 C        -0.052145         0.037894        -0.212609
 C         1.389529         0.042034         0.106004
 C         2.147273         0.742109         1.200486
 C         3.362025         0.537724         0.331173
 C         3.263125        -0.848111        -0.367060
 O         4.450735        -1.615672        -0.588967
 C         1.938574        -1.441206         0.134662
 C         2.608145         0.418438        -0.965226
 O         2.339185         1.049153        -2.138552
 H        -0.602696        -0.322812         0.725828
 H        -0.412153         0.955915        -0.544318
 H        -0.192263        -0.599473        -1.009509
 H         1.966582         1.779763         1.142251
 H         1.943492         0.340091         2.242389
 H         4.215226         1.190169         0.515008
 H         4.761987        -1.724402        -1.458021
 H         1.456219        -2.064617        -0.650867
 H         1.925649        -1.858560         1.205718
 H         3.148560         1.530963        -2.555800
