19
Iteration:  3098charge 0 multiplicity 1
 C        -0.079286         0.251404        -0.282597
 C         1.327164         0.014141         0.092450
 C         2.086138         0.704227         1.291691
 C         3.343374         0.550823         0.422945
 C         3.227648        -0.867567        -0.338514
 O         4.409418        -1.621480        -0.646020
 C         1.911452        -1.551236        -0.042331
 C         2.588140         0.394740        -0.863500
 O         2.623132         1.005788        -2.113224
 H        -0.756475         0.299043         0.670653
 H        -0.167241         1.326905        -0.676270
 H        -0.529986        -0.563373        -0.854719
 H         1.855930         1.692899         1.675536
 H         2.115560         0.153608         2.211362
 H         4.340883         1.084560         0.440106
 H         4.327325        -1.767061        -1.619687
 H         1.414106        -1.805181        -1.002720
 H         1.711516        -2.340606         0.695746
 H         3.049196         1.835615        -2.051891
