19
Iteration:  2018charge 0 multiplicity 1
 C        -0.108464         0.200975        -0.257609
 C         1.396570        -0.005619         0.000844
 C         2.039243         0.670640         1.186376
 C         3.368287         0.436328         0.480056
 C         3.246376        -0.884189        -0.306640
 O         4.399042        -1.609942        -0.709855
 C         1.943632        -1.454646         0.021047
 C         2.683614         0.371874        -0.850657
 O         2.615178         1.170958        -2.060252
 H        -0.695297        -0.596054         0.291351
 H        -0.463068         1.164697         0.191058
 H        -0.520649         0.091039        -1.307348
 H         1.829700         1.719855         1.252321
 H         1.855106         0.463511         2.254350
 H         4.452223         0.815030         0.655095
 H         4.252934        -2.002953        -1.629804
 H         1.602336        -2.201948        -0.743736
 H         1.640243        -1.902582         0.978213
 H         1.736538         1.481389        -2.200775
