19
Iteration:  3657charge 0 multiplicity 1
 C        -0.099072         0.207629        -0.276272
 C         1.361473         0.068313         0.059678
 C         2.049432         0.647244         1.310998
 C         3.339590         0.456187         0.548843
 C         3.165056        -0.818219        -0.349292
 O         4.246623        -1.404623        -0.946165
 C         1.851630        -1.435371         0.115600
 C         2.617910         0.457763        -0.760413
 O         2.865982         0.737334        -2.122325
 H        -0.611436        -0.153642         0.501977
 H        -0.270947         1.212149        -0.676341
 H        -0.372813        -0.653939        -0.991172
 H         1.818503         1.710490         1.605743
 H         1.896599        -0.009500         2.216623
 H         4.320986         0.669519         0.916588
 H         4.232977        -0.782891        -1.766791
 H         1.446751        -2.100014        -0.700914
 H         1.838137        -1.806033         1.115222
 H         3.204713         1.612423        -2.221045
