19
Iteration:   936
 C        -0.125383         0.251475        -0.161427
 C         1.319837        -0.085650         0.151669
 C         2.103713         0.770113         1.217994
 C         3.363888         0.572146         0.465314
 C         3.201819        -0.817605        -0.356345
 O         4.297616        -1.507813        -0.855721
 C         1.946037        -1.533112         0.129451
 C         2.594789         0.373997        -0.884217
 O         2.720816         0.845694        -2.190905
 H        -0.727430        -0.089545         0.673986
 H        -0.128849         1.381515        -0.097508
 H        -0.504305        -0.145864        -1.160969
 H         2.009566         1.844896         1.168149
 H         2.169333         0.380458         2.232340
 H         4.379371         0.934788         0.436265
 H         5.172906        -0.918544        -0.541322
 H         1.368294        -2.167673        -0.622347
 H         2.058984        -2.123166         1.024934
 H         1.786229         1.141451        -2.427531
