19
Iteration:  2522
 C        -0.110523         0.299908        -0.211359
 C         1.305481        -0.040345         0.037524
 C         2.002369         0.521625         1.289576
 C         3.294776         0.475653         0.434130
 C         3.232759        -0.875686        -0.370254
 O         4.415792        -1.491440        -0.660361
 C         1.984640        -1.486208         0.048947
 C         2.596678         0.369582        -0.926339
 O         2.713134         1.053631        -2.159572
 H        -0.700538         0.515580         0.809577
 H        -0.087564         1.292891        -0.627043
 H        -0.651614        -0.379130        -0.973355
 H         1.801242         1.549345         1.312104
 H         1.915635        -0.071418         2.156307
 H         4.183043         0.978062         0.712615
 H         4.416648        -1.959730        -1.417858
 H         1.374725        -2.041239        -0.712946
 H         1.979420        -2.069948         0.959471
 H         2.773167         2.042968        -2.030534
