19
Iteration:    30charge 0 multiplicity 1
 C        -0.051495         0.254078        -0.304878
 C         1.421076        -0.002239         0.075190
 C         2.201385         0.773849         1.195205
 C         3.395795         0.536490         0.409355
 C         3.252174        -0.876580        -0.388745
 O         4.381120        -1.611031        -0.680266
 C         1.966823        -1.448729         0.175505
 C         2.585885         0.325543        -0.903379
 O         2.326311         0.985829        -2.166643
 H        -0.810417        -0.509679         0.169095
 H        -0.393368         1.277767        -0.091928
 H        -0.083557         0.120068        -1.350348
 H         1.793066         1.744986         1.407930
 H         2.204153         0.351317         2.217722
 H         4.348738         1.004241         0.462970
 H         4.613308        -2.034219         0.273173
 H         1.584952        -2.167510        -0.523240
 H         1.885224        -1.903405         1.208737
 H         3.006110         1.398754        -2.633579
