19
Iteration:  1399charge 0 multiplicity 1
 C        -0.125685         0.095177        -0.181010
 C         1.323092        -0.064084         0.082894
 C         2.082147         0.777076         1.187362
 C         3.349604         0.475460         0.348293
 C         3.210530        -0.850129        -0.414723
 O         4.472338        -1.453689        -0.755496
 C         1.986133        -1.517372         0.149076
 C         2.507729         0.342539        -0.892675
 O         2.609630         1.029338        -2.148833
 H        -0.806738        -0.231870         0.721796
 H        -0.233738         1.158655        -0.187783
 H        -0.532008        -0.132861        -1.113709
 H         1.973452         1.870059         1.195290
 H         1.991812         0.437690         2.268378
 H         4.367451         1.002168         0.339473
 H         4.654085        -2.259726        -0.218677
 H         1.437950        -2.144811        -0.544791
 H         2.021116        -1.963916         1.153104
 H         2.550020         1.978240        -1.810925
