19
Iteration:  1007charge 0 multiplicity 1
 C         0.000838         0.206039        -0.257572
 C         1.406340        -0.055541         0.168194
 C         2.121733         0.782104         1.273453
 C         3.370041         0.530906         0.424795
 C         3.249585        -0.866961        -0.313243
 O         4.365247        -1.497935        -0.775923
 C         1.996276        -1.404811         0.083470
 C         2.544097         0.368454        -0.944160
 O         2.450942         0.865702        -2.197988
 H        -0.630787         0.035612         0.631170
 H        -0.046611         1.244733        -0.515968
 H        -0.361676        -0.416319        -1.046297
 H         1.708275         1.808816         1.343109
 H         2.133880         0.170738         2.240324
 H         4.256984         1.043318         0.627173
 H         4.345126        -2.378693        -0.431603
 H         1.466177        -1.923162        -0.661404
 H         2.035804        -2.042889         0.976820
 H         2.500542         1.878275        -2.112248
