19
Iteration:  3412
 C        -0.141671         0.314016        -0.133777
 C         1.319508         0.000671         0.063454
 C         2.066195         0.640292         1.266384
 C         3.371604         0.499122         0.444984
 C         3.183184        -0.857568        -0.316171
 O         4.368530        -1.448939        -0.681420
 C         1.874841        -1.485154        -0.040090
 C         2.573833         0.333504        -0.897178
 O         2.778618         0.861617        -2.172317
 H        -0.749621        -0.334688         0.484783
 H        -0.388450         1.356879         0.200501
 H        -0.293063         0.299294        -1.321091
 H         1.900393         1.621092         1.311926
 H         2.144045         0.058904         2.141871
 H         4.280853         0.888445         0.837569
 H         4.446446        -1.480883        -1.716341
 H         1.451139        -1.912370        -0.918131
 H         1.840309        -2.272342         0.721239
 H         2.782156         1.857209        -2.034811
