19
Iteration:   945
 C        -0.045001         0.302872        -0.171990
 C         1.344947        -0.072101         0.153322
 C         2.074430         0.769253         1.233954
 C         3.412628         0.525918         0.449154
 C         3.235819        -0.884046        -0.316597
 O         4.310328        -1.447821        -0.899310
 C         1.924651        -1.531750         0.174997
 C         2.510668         0.339615        -0.854426
 O         2.702096         0.841350        -2.210534
 H        -0.709110        -0.064061         0.575581
 H        -0.140384         1.465584        -0.275765
 H        -0.503750        -0.185746        -1.162205
 H         1.617935         1.823370         1.324912
 H         2.010589         0.342550         2.180734
 H         4.321206         1.034652         0.568403
 H         5.241067        -0.965849        -0.608593
 H         1.413914        -2.116185        -0.673706
 H         1.950215        -2.155699         1.137980
 H         1.840980         1.148756        -2.640656
