19
Iteration:  2154charge 0 multiplicity 1
 C        -0.139897         0.346189        -0.297729
 C         1.295297        -0.066402         0.010061
 C         2.061952         0.532535         1.284744
 C         3.368510         0.441434         0.426078
 C         3.178006        -0.831266        -0.335286
 O         4.363683        -1.531175        -0.905566
 C         1.884109        -1.523171         0.181692
 C         2.557637         0.324014        -0.902316
 O         2.750940         1.168975        -1.996648
 H        -0.714609        -0.008692         0.496648
 H        -0.393578         1.417582        -0.443045
 H        -0.464211        -0.310657        -1.075282
 H         1.769501         1.617156         1.419209
 H         1.905647         0.095466         2.261417
 H         4.449128         0.911216         0.486524
 H         5.210957        -0.996709        -0.672139
 H         1.476385        -2.310159        -0.441316
 H         1.882080        -1.922306         1.215667
 H         3.308250         0.655236        -2.528052
