19
Iteration:  4436charge 0 multiplicity 1
 C        -0.100846         0.320232        -0.230104
 C         1.320148        -0.048116         0.027723
 C         2.094778         0.657893         1.166590
 C         3.367993         0.517569         0.389704
 C         3.254118        -0.913911        -0.310950
 O         4.411697        -1.582422        -0.579466
 C         1.945482        -1.545426        -0.024450
 C         2.604683         0.412725        -0.891709
 O         2.542939         1.098930        -2.031015
 H        -0.666978         0.457953         0.775757
 H        -0.211487         1.275586        -0.815006
 H        -0.778344        -0.444255        -0.745040
 H         1.802076         1.611199         1.391560
 H         1.967300         0.244082         2.108870
 H         4.327078         0.958462         0.596649
 H         4.366595        -1.908175        -1.437368
 H         1.644837        -1.962150        -0.948535
 H         1.816131        -2.406324         0.653017
 H         3.356536         1.130335        -2.625948
