19
Iteration:  1534charge 0 multiplicity 1
 C        -0.089234         0.255863        -0.217120
 C         1.352517        -0.040604         0.054562
 C         2.040763         0.623260         1.281498
 C         3.371541         0.584353         0.531685
 C         3.258125        -0.761215        -0.286267
 O         4.322595        -1.462422        -0.864488
 C         1.957481        -1.491024         0.023899
 C         2.518214         0.434419        -0.832453
 O         2.686097         0.758228        -2.171671
 H        -0.706606         0.044374         0.736794
 H        -0.287626         1.282993        -0.592380
 H        -0.445813        -0.402467        -1.059873
 H         1.725190         1.550090         1.661065
 H         2.252954        -0.050161         2.187464
 H         4.302762         1.118566         0.897025
 H         5.044490        -0.962186        -0.946496
 H         1.581700        -2.020400        -0.891147
 H         1.948480        -2.217736         0.865696
 H         2.267094         1.685053        -2.259243
