19
Iteration:  3822
 C        -0.083598         0.267960        -0.362490
 C         1.354768         0.034227         0.041008
 C         2.077269         0.731068         1.256555
 C         3.353700         0.470402         0.434505
 C         3.188395        -0.973879        -0.324083
 O         4.413213        -1.531328        -0.825487
 C         1.863617        -1.517832         0.182328
 C         2.640252         0.289267        -0.848934
 O         2.644586         1.047035        -2.052045
 H        -0.729638         0.043193         0.370557
 H        -0.090134         1.350187        -0.641172
 H        -0.489254        -0.398044        -1.183842
 H         1.657766         1.853222         1.369495
 H         1.913319         0.348557         2.320333
 H         4.349934         0.882367         0.631235
 H         4.185019        -1.789086        -1.658197
 H         1.204104        -2.148041        -0.444666
 H         1.918851        -1.874202         1.214388
 H         3.161931         1.889964        -1.789027
