19
Iteration:  3339charge 0 multiplicity 1
 C        -0.026028         0.178282        -0.364535
 C         1.423320        -0.082848         0.112723
 C         2.105875         0.707904         1.228019
 C         3.373672         0.568516         0.480816
 C         3.228219        -0.831010        -0.345479
 O         4.300981        -1.727874        -0.688869
 C         1.913812        -1.475653         0.057036
 C         2.632405         0.435220        -0.847481
 O         2.551908         1.127908        -2.082053
 H        -0.760121        -0.043494         0.427055
 H        -0.262588         1.222982        -0.555179
 H        -0.180041        -0.416589        -1.177937
 H         1.811495         1.874152         1.128070
 H         2.151007         0.190074         2.250908
 H         4.276234         1.051358         0.751296
 H         4.056808        -2.092692        -1.673670
 H         1.430498        -2.018034        -0.827893
 H         1.840200        -2.160487         0.930058
 H         2.910120         2.013318        -2.067208
