19
Iteration:  3951
 C        -0.136498         0.262113        -0.359430
 C         1.337496        -0.040045         0.010259
 C         2.145214         0.653503         1.245546
 C         3.372938         0.487028         0.427028
 C         3.237559        -0.865034        -0.310779
 O         4.348866        -1.525850        -0.725975
 C         1.910736        -1.463381         0.179372
 C         2.556127         0.369006        -0.910949
 O         2.698321         1.022185        -2.094461
 H        -0.649460        -0.311376         0.485098
 H        -0.421569         1.267721        -0.180547
 H        -0.257913         0.024646        -1.410701
 H         1.796469         1.668990         1.374508
 H         1.915439         0.062449         2.146616
 H         4.411166         0.637482         0.603117
 H         4.075352        -2.042280        -1.531165
 H         1.312934        -2.176903        -0.430905
 H         1.836956        -1.775703         1.228884
 H         2.883399         1.895402        -1.836217
