19
Iteration:  2559charge 0 multiplicity 1
 C        -0.111314         0.218604        -0.214035
 C         1.384368         0.027187         0.022591
 C         2.068050         0.638894         1.205938
 C         3.344136         0.505068         0.453074
 C         3.268225        -0.912185        -0.279945
 O         4.438245        -1.564090        -0.639071
 C         1.866455        -1.451031        -0.107325
 C         2.618651         0.425213        -0.841739
 O         2.675905         1.034506        -2.079638
 H        -0.694140        -0.200353         0.663196
 H        -0.334121         1.350960        -0.358105
 H        -0.537194        -0.274363        -1.062066
 H         1.870663         1.721831         1.321869
 H         1.900134         0.247450         2.278202
 H         4.370658         0.973440         0.644657
 H         4.314880        -1.982821        -1.455490
 H         1.513268        -1.732362        -1.116063
 H         1.564248        -2.240490         0.698967
 H         1.692741         1.219928        -2.274940
