19
Iteration:  1084
 C        -0.208223         0.057579        -0.104394
 C         1.328479        -0.105532         0.025054
 C         2.104233         0.825868         1.172407
 C         3.375294         0.651891         0.310085
 C         3.234411        -0.859325        -0.377580
 O         4.414659        -1.540477        -0.707428
 C         1.967934        -1.478959         0.196273
 C         2.619165         0.354885        -0.937189
 O         2.681846         1.104104        -2.104213
 H        -0.811469        -0.575985         0.618406
 H        -0.428875         1.113679         0.022351
 H        -0.521812        -0.307017        -1.096774
 H         1.932287         1.920009         1.286265
 H         2.049574         0.434102         2.240696
 H         4.370008         0.925276         0.375171
 H         4.046942        -2.456574        -1.050763
 H         1.522522        -2.097883        -0.538484
 H         1.870598        -1.986973         1.139607
 H         2.117311         0.698686        -2.730396
