19
Iteration:  1101
 C        -0.174719         0.078651        -0.161700
 C         1.323075         0.064181         0.112592
 C         2.129074         0.733553         1.194521
 C         3.381865         0.570004         0.350635
 C         3.307698        -0.835464        -0.253134
 O         4.408284        -1.519898        -0.717548
 C         1.955033        -1.419043         0.128767
 C         2.529842         0.361412        -0.910363
 O         2.692145         0.963302        -2.174109
 H        -0.655295        -0.517282         0.649067
 H        -0.697059         1.049642        -0.146836
 H        -0.455712        -0.403866        -1.098300
 H         1.690026         1.730036         1.170420
 H         2.193941         0.284674         2.178043
 H         4.270108         1.247733         0.378861
 H         4.078714        -1.952067        -1.677678
 H         1.578663        -2.164327        -0.666154
 H         1.919220        -1.997801         1.110027
 H         1.797869         1.025255        -2.466381
