19
Iteration:   335
 C        -0.142011         0.224511         0.026558
 C         1.298860        -0.023878         0.149168
 C         2.055164         0.795267         1.150860
 C         3.351897         0.563215         0.366429
 C         3.210269        -0.854426        -0.338732
 O         4.242018        -1.441162        -0.984172
 C         1.884438        -1.463898         0.175092
 C         2.566730         0.367913        -0.913757
 O         2.889219         0.814975        -2.159098
 H        -0.803034        -0.403873         0.585131
 H        -0.317886         1.297590         0.301321
 H        -0.382028         0.167679        -1.043749
 H         1.728188         1.847788         1.286311
 H         1.859084         0.354825         2.082540
 H         4.393020         0.943744         0.631352
 H         5.062169        -1.641871        -0.243123
 H         1.364394        -2.054623        -0.526784
 H         1.826135        -1.858577         1.205667
 H         3.200647         0.093692        -2.692291
