19
Iteration:  1045
 C        -0.206167         0.075417        -0.123267
 C         1.356845         0.018397         0.008625
 C         2.158070         0.765746         1.123696
 C         3.379845         0.487972         0.315087
 C         3.289108        -0.867996        -0.327915
 O         4.442397        -1.554330        -0.692227
 C         1.981521        -1.448804         0.197090
 C         2.539690         0.275153        -0.985300
 O         2.495656         1.163773        -2.094035
 H        -0.814775        -0.255612         0.704844
 H        -0.334345         1.204021        -0.092123
 H        -0.669091        -0.178147        -1.117699
 H         1.758314         1.816374         1.184838
 H         2.154792         0.398630         2.121760
 H         4.406120         1.049611         0.296323
 H         4.348972        -2.599848        -0.428071
 H         1.556355        -2.099598        -0.650829
 H         1.902079        -1.858301         1.245829
 H         3.428936         1.137403        -2.488379
