19
Iteration:  2293
 C        -0.178968         0.255649        -0.305834
 C         1.308584        -0.027151         0.040263
 C         1.979640         0.686563         1.278706
 C         3.426926         0.398291         0.546856
 C         3.288155        -0.870574        -0.335142
 O         4.404068        -1.484860        -0.931108
 C         1.883743        -1.520142         0.076720
 C         2.582178         0.324735        -0.811876
 O         2.716612         0.987052        -2.046368
 H        -0.753039         0.242757         0.616145
 H        -0.365669         1.310582        -0.787487
 H        -0.636946        -0.494813        -0.960308
 H         1.700372         1.758846         1.095321
 H         1.571749         0.467284         2.384653
 H         4.415690         0.877638         0.797806
 H         4.990943        -0.736646        -0.999489
 H         1.336964        -2.161681        -0.692586
 H         1.863592        -2.146643         0.979268
 H         3.201128         1.896890        -1.978137
