19
Iteration:  4488
 C        -0.085676         0.178180        -0.381652
 C         1.336407        -0.033466         0.074544
 C         2.105198         0.667733         1.254722
 C         3.382833         0.483246         0.470735
 C         3.136899        -0.853757        -0.331858
 O         4.323376        -1.447478        -0.815450
 C         1.900163        -1.492248         0.164615
 C         2.597512         0.394078        -0.824890
 O         2.741934         1.070403        -2.056944
 H        -0.813090        -0.143090         0.272965
 H        -0.330579         1.283120        -0.415947
 H        -0.237490        -0.191019        -1.380820
 H         1.692845         1.742913         1.331023
 H         1.952922         0.280341         2.404847
 H         4.402449         0.698432         0.721526
 H         4.036645        -2.126192        -1.386929
 H         1.475773        -2.349049        -0.438369
 H         2.028446        -1.791488         1.222545
 H         3.005810         0.545168        -2.787271
