19
Iteration:  3366charge 0 multiplicity 1
 C        -0.143541         0.343181        -0.276139
 C         1.369134         0.008241        -0.011718
 C         2.036374         0.648601         1.237968
 C         3.346235         0.407606         0.391921
 C         3.253858        -0.887243        -0.329312
 O         4.446733        -1.559476        -0.708994
 C         1.962630        -1.443288         0.130888
 C         2.586850         0.334611        -0.935166
 O         2.617525         1.065246        -2.055273
 H        -0.732177        -0.227318         0.463628
 H        -0.555879         1.366910        -0.147912
 H        -0.505507         0.136959        -1.416413
 H         1.917764         1.628287         1.377631
 H         2.023207        -0.047202         1.998840
 H         4.414221         0.686741         0.646875
 H         4.140604        -2.499572        -1.129343
 H         1.571303        -2.139095        -0.595470
 H         1.881194        -1.928008         1.113143
 H         2.620446         2.021453        -1.888695
