19
Iteration:  2061
 C        -0.092629         0.374548        -0.250568
 C         1.287235        -0.113351         0.098708
 C         2.152764         0.544428         1.328471
 C         3.266260         0.492748         0.318928
 C         3.199789        -0.876578        -0.391384
 O         4.443318        -1.454051        -0.658295
 C         1.875413        -1.549444         0.045910
 C         2.547607         0.376670        -0.865862
 O         2.703375         1.116197        -2.078009
 H        -0.930429        -0.058281         0.448540
 H        -0.155023         1.457413        -0.077015
 H        -0.358575        -0.019547        -1.281884
 H         1.799485         1.556492         1.490121
 H         2.221929         0.041199         2.326382
 H         4.294367         0.930295         0.487323
 H         4.552231        -1.542974        -1.537627
 H         1.350699        -2.147271        -0.722008
 H         2.016482        -2.277192         0.832073
 H         2.762029         0.515442        -2.890295
