19
Iteration:  4507charge 0 multiplicity 1
 C        -0.095012         0.211370        -0.380795
 C         1.303054        -0.019891         0.120496
 C         2.077379         0.678664         1.281813
 C         3.307523         0.535685         0.417402
 C         3.281354        -0.838308        -0.256249
 O         4.331764        -1.508583        -0.897755
 C         1.935945        -1.496971         0.182677
 C         2.536628         0.375628        -0.832929
 O         2.818531         1.056379        -2.028385
 H        -0.925423        -0.478060         0.066686
 H        -0.419508         1.290860        -0.170001
 H        -0.183561         0.072737        -1.477864
 H         1.762170         1.761609         1.532743
 H         1.978324         0.292439         2.299749
 H         4.164912         1.206368         0.328367
 H         3.970550        -2.323524        -1.066747
 H         1.516362        -2.037276        -0.749737
 H         1.668054        -2.189962         1.001833
 H         2.648210         0.326144        -2.633792
