19
Iteration:  3258charge 0 multiplicity 1
 C        -0.112365         0.333692        -0.129921
 C         1.305366        -0.083274         0.095731
 C         2.002745         0.648519         1.207571
 C         3.272841         0.598153         0.425810
 C         3.249333        -0.838042        -0.292629
 O         4.354064        -1.590614        -0.812126
 C         1.918970        -1.501936        -0.029392
 C         2.542393         0.427335        -0.832757
 O         2.839480         0.841145        -2.101138
 H        -0.724013        -0.004079         0.642024
 H        -0.077095         1.402888        -0.255704
 H        -0.478876        -0.102501        -1.113531
 H         1.614360         1.664235         1.353664
 H         1.871753         0.308159         2.307691
 H         4.293315         1.056744         0.597026
 H         5.031391        -0.867827        -1.225127
 H         1.638098        -2.030404        -0.910780
 H         1.841410        -2.115967         0.877428
 H         2.480230         1.681074        -2.297201
