19
Iteration:   927charge 0 multiplicity 1
 C        -0.178574         0.208703        -0.104738
 C         1.332823        -0.026881         0.103171
 C         2.155997         0.750849         1.241173
 C         3.332538         0.556815         0.345876
 C         3.177380        -0.812381        -0.345502
 O         4.313808        -1.577675        -0.812899
 C         1.972853        -1.492215         0.094618
 C         2.639767         0.404629        -0.904897
 O         2.714707         0.862507        -2.157092
 H        -0.911547        -0.175401         0.663156
 H        -0.419734         1.244774        -0.151198
 H        -0.468216        -0.116391        -1.050268
 H         1.855750         1.766387         1.162016
 H         2.039229         0.513443         2.373993
 H         4.351704         0.959738         0.631823
 H         5.217329        -1.028173        -0.559778
 H         1.599599        -2.125368        -0.710822
 H         1.991287        -1.944420         1.034386
 H         1.833994         1.292808        -2.342068
