19
Iteration:  4781charge 0 multiplicity 1
 C        -0.100404         0.368970        -0.336601
 C         1.316419        -0.017356         0.012599
 C         2.054644         0.619006         1.193056
 C         3.366272         0.459627         0.415359
 C         3.184698        -0.894404        -0.282123
 O         4.389006        -1.507957        -0.735523
 C         1.885047        -1.506715         0.130467
 C         2.638085         0.332206        -0.851411
 O         2.695498         1.018157        -2.048024
 H        -0.848705        -0.323945         0.117982
 H        -0.272286         1.384409        -0.095230
 H        -0.412605         0.351647        -1.337598
 H         1.721012         1.767603         1.293065
 H         2.287088        -0.001405         2.163038
 H         4.346807         0.741141         0.810293
 H         4.352100        -2.013852        -1.639228
 H         1.530210        -2.208810        -0.656888
 H         1.834992        -2.162579         0.998973
 H         2.710942         1.994935        -1.794850
