19
Iteration:  4689
 C        -0.117105         0.284344        -0.298522
 C         1.335078        -0.024293         0.065298
 C         2.000202         0.650966         1.254379
 C         3.335804         0.462830         0.464731
 C         3.183737        -0.928286        -0.440985
 O         4.441251        -1.536745        -0.743062
 C         1.880272        -1.455779         0.091019
 C         2.670712         0.368260        -0.867323
 O         2.726046         1.165283        -2.000121
 H        -0.810487         0.029002         0.417177
 H        -0.144470         1.298956        -0.597720
 H        -0.502737        -0.317793        -1.125354
 H         1.567865         1.655403         1.277308
 H         1.882519         0.200530         2.346615
 H         4.323673         0.842433         0.668453
 H         4.269133        -2.361146        -1.336015
 H         1.428365        -2.208985        -0.544083
 H         1.839019        -1.966219         1.097070
 H         2.750497         0.517752        -2.832687
