19
Iteration:  3393
 C        -0.086273         0.333180        -0.163581
 C         1.341760        -0.133406         0.104404
 C         2.091913         0.657498         1.275806
 C         3.360441         0.444052         0.333219
 C         3.153029        -0.936456        -0.369725
 O         4.447658        -1.384314        -0.640497
 C         1.775519        -1.575449         0.030811
 C         2.535907         0.419061        -0.903964
 O         2.787516         0.985223        -2.133107
 H        -0.945209        -0.238555         0.263533
 H        -0.259609         1.405324         0.056800
 H        -0.248542         0.432034        -1.265811
 H         1.724245         1.809696         1.171197
 H         2.152048         0.208581         2.365101
 H         4.377174         0.776595         0.240084
 H         4.442913        -2.165286        -1.407498
 H         1.344063        -2.173284        -0.820323
 H         1.668763        -2.091157         0.993874
 H         2.657172         1.946728        -2.200563
