19
Iteration:    18
 C        -0.007613         0.223845        -0.250758
 C         1.380939        -0.004774         0.141999
 C         2.097028         0.777784         1.273197
 C         3.371079         0.534419         0.368104
 C         3.221013        -0.890893        -0.356404
 O         4.435726        -1.616898        -0.730689
 C         1.950737        -1.479568         0.191850
 C         2.557237         0.406921        -0.937924
 O         2.405998         1.036510        -2.237423
 H        -0.742683        -0.371584         0.385237
 H        -0.263341         1.294450        -0.160320
 H        -0.193928        -0.069635        -1.291055
 H         1.851075         1.847036         1.138631
 H         2.001585         0.318090         2.282594
 H         4.409073         0.838827         0.510613
 H         4.744475        -1.966961         0.020290
 H         1.361285        -2.088143        -0.499154
 H         2.011607        -1.916569         1.227527
 H         3.235167         0.622054        -2.597250
