19
Iteration:  3348charge 0 multiplicity 1
 C        -0.042991         0.207222        -0.328747
 C         1.352455        -0.031463         0.052560
 C         2.096106         0.631953         1.225333
 C         3.425258         0.527317         0.500102
 C         3.282990        -0.875717        -0.320363
 O         4.348129        -1.693481        -0.697748
 C         1.914047        -1.470128         0.071001
 C         2.627453         0.459984        -0.854146
 O         2.542427         1.120853        -2.121082
 H        -0.701818        -0.162031         0.445130
 H        -0.213639         1.292418        -0.485977
 H        -0.416567        -0.156334        -1.329345
 H         1.765594         1.777230         1.209311
 H         1.779182         0.251767         2.299318
 H         4.300102         1.125228         0.540077
 H         3.926491        -2.286823        -1.489488
 H         1.491277        -2.129292        -0.690417
 H         1.852256        -1.929874         1.074461
 H         2.844667         2.014957        -1.920759
