19
Iteration:  1995charge 0 multiplicity 1
 C        -0.073892         0.117737        -0.325430
 C         1.369281        -0.005035         0.098695
 C         2.061875         0.673703         1.227433
 C         3.365164         0.565419         0.494146
 C         3.240461        -0.774521        -0.350494
 O         4.339761        -1.705081        -0.779774
 C         1.984826        -1.464666         0.020927
 C         2.598295         0.442254        -0.817363
 O         2.677595         1.110021        -2.065749
 H        -0.718436        -0.599431         0.335311
 H        -0.457110         1.107766        -0.153396
 H        -0.350416        -0.192174        -1.382619
 H         1.769028         1.692392         1.346763
 H         1.921296         0.389838         2.275706
 H         4.343666         1.117259         0.710436
 H         3.828837        -2.426039        -1.228309
 H         1.477688        -1.971665        -0.831838
 H         1.920906        -2.189738         0.842717
 H         2.181858         1.965306        -1.864662
