19
Iteration:  2357charge 0 multiplicity 1
 C        -0.165885         0.334620        -0.240180
 C         1.313524        -0.073523         0.042807
 C         1.996519         0.569294         1.241202
 C         3.352190         0.545249         0.460974
 C         3.279579        -0.826021        -0.265131
 O         4.428518        -1.559628        -0.754742
 C         1.960415        -1.496021        -0.027559
 C         2.574863         0.338975        -0.871804
 O         2.771535         1.078367        -2.047431
 H        -0.775141         0.147046         0.686688
 H        -0.233966         1.344644        -0.416036
 H        -0.649140        -0.277628        -1.021445
 H         1.663351         1.598902         1.377845
 H         2.042732        -0.109195         2.110278
 H         4.333408         1.056250         0.710142
 H         4.033272        -2.132049        -1.382915
 H         1.586982        -1.950347        -1.020469
 H         1.815379        -2.297139         0.726676
 H         1.998385         1.640843        -2.318160
