19
Iteration:  1727charge 0 multiplicity 1
 C        -0.077819         0.379501        -0.134769
 C         1.355547        -0.101559        -0.016203
 C         1.902562         0.646498         1.270903
 C         3.284060         0.490889         0.488229
 C         3.279006        -0.847348        -0.328962
 O         4.466021        -1.335259        -0.910920
 C         1.891016        -1.580081         0.045528
 C         2.571888         0.326669        -0.841088
 O         2.723559         0.860084        -2.107891
 H        -0.639374         0.190157         0.808037
 H        -0.060623         1.517162        -0.263355
 H        -0.618723         0.055053        -1.012914
 H         1.494327         1.692730         1.354445
 H         1.812403         0.062695         2.166954
 H         4.367973         0.990420         0.541254
 H         4.727178        -2.132996        -0.433592
 H         1.510298        -2.127707        -0.841368
 H         1.848476        -2.229740         0.969995
 H         2.790120         1.836448        -2.105979
