19
Iteration:  2004charge 0 multiplicity 1
 C        -0.098746         0.147053        -0.249770
 C         1.353355        -0.026550         0.009097
 C         2.037934         0.737219         1.209884
 C         3.423300         0.525288         0.523048
 C         3.314706        -0.857078        -0.336365
 O         4.353507        -1.674767        -0.750086
 C         1.932557        -1.481041         0.037692
 C         2.617248         0.467920        -0.882103
 O         2.648827         1.124175        -2.045024
 H        -0.755760        -0.698355         0.341343
 H        -0.441280         1.112874        -0.116837
 H        -0.178492         0.038664        -1.394478
 H         1.716752         1.778990         1.151579
 H         1.804864         0.118951         2.090026
 H         4.369615         0.933141         0.906934
 H         3.856610        -2.296031        -1.411143
 H         1.486742        -1.879849        -0.833278
 H         2.053070        -2.141239         0.873489
 H         1.834416         1.721935        -1.923635
