19
Iteration:  4455
 C        -0.132983         0.232562        -0.280126
 C         1.331403         0.036018         0.038275
 C         2.126881         0.688634         1.250682
 C         3.385566         0.467048         0.497199
 C         3.257828        -0.913434        -0.299782
 O         4.485915        -1.576739        -0.680861
 C         1.827204        -1.473057        -0.007935
 C         2.590454         0.342907        -0.922374
 O         2.569086         1.118053        -2.038135
 H        -0.670963         0.242710         0.580530
 H        -0.141598         1.264108        -0.759646
 H        -0.663838        -0.459779        -0.890618
 H         1.638009         1.721153         1.150986
 H         1.829507         0.232032         2.337818
 H         4.378894         0.885173         0.471233
 H         4.364745        -1.617698        -1.639802
 H         1.499716        -2.271569        -0.739764
 H         1.675944        -1.875977         1.007774
 H         3.311829         0.684585        -2.619157
