19
Iteration:  3889
 C        -0.133871         0.316677        -0.052879
 C         1.337294         0.022339        -0.028015
 C         1.939161         0.595712         1.201400
 C         3.379990         0.481946         0.537084
 C         3.296355        -0.818691        -0.205346
 O         4.362502        -1.479858        -0.743512
 C         1.842992        -1.450033        -0.055282
 C         2.644124         0.447822        -0.836204
 O         2.828213         0.781665        -2.226908
 H        -0.637364        -0.298533         0.598474
 H        -0.371657         1.438285         0.065555
 H        -0.709940        -0.118709        -0.896402
 H         1.722339         1.721206         1.305364
 H         1.796862         0.008026         2.170048
 H         4.352577         0.892581         0.670335
 H         4.329712        -1.281331        -1.794406
 H         1.351777        -1.828210        -0.950241
 H         1.700107        -2.083285         0.835711
 H         2.490568         1.593393        -2.508071
