19
Iteration:  2760
 C        -0.117244         0.238546        -0.335487
 C         1.356814         0.111992         0.037733
 C         2.063664         0.597106         1.305289
 C         3.428056         0.371539         0.508966
 C         3.190664        -0.872989        -0.403966
 O         4.390268        -1.481356        -0.760778
 C         1.895775        -1.456282         0.125087
 C         2.633434         0.486436        -0.792051
 O         2.662537         0.961720        -2.139333
 H        -0.587858        -0.257461         0.485029
 H        -0.622749         1.194767        -0.657060
 H        -0.198299        -0.364747        -1.328265
 H         1.925655         1.660100         1.319063
 H         1.847304         0.091839         2.223056
 H         4.454938         0.698101         0.902973
 H         4.165683        -2.040048        -1.605055
 H         1.407956        -2.176626        -0.585048
 H         1.881554        -1.951542         1.122946
 H         2.210630         1.777819        -2.124733
