19
Iteration:  1832charge 0 multiplicity 1
 C        -0.100246         0.221003        -0.294047
 C         1.355397        -0.089923         0.083790
 C         1.993907         0.767477         1.119894
 C         3.385884         0.447919         0.397896
 C         3.269354        -0.944243        -0.355986
 O         4.443928        -1.562995        -0.761487
 C         1.917360        -1.468621         0.128070
 C         2.550778         0.280260        -0.880008
 O         2.641949         1.151981        -1.952980
 H        -0.827940        -0.420243         0.155282
 H        -0.322796         1.302873        -0.042841
 H        -0.312952         0.208979        -1.412062
 H         1.771241         1.852999         1.184073
 H         1.758648         0.432747         2.228035
 H         4.280683         0.941404         0.390009
 H         4.172921        -1.941421        -1.619487
 H         1.553499        -2.257829        -0.676618
 H         1.896992        -2.030186         1.118593
 H         2.927730         1.946359        -1.587957
