19
Iteration:  4835
 C        -0.101582         0.220653        -0.433828
 C         1.374469         0.078552         0.001714
 C         2.053773         0.653338         1.320661
 C         3.439898         0.471871         0.582496
 C         3.200502        -0.861040        -0.202854
 O         4.235686        -1.486568        -0.874344
 C         1.835543        -1.485047         0.029521
 C         2.692202         0.398812        -0.816986
 O         2.764531         0.878741        -2.061426
 H        -0.799191         0.212517         0.455360
 H        -0.326641         1.165174        -0.821948
 H        -0.472745        -0.537395        -1.053980
 H         1.819355         1.723118         1.668464
 H         1.898422         0.173094         2.355238
 H         4.447860         0.833357         0.785533
 H         4.445747        -1.171671        -1.816289
 H         1.460406        -2.198828        -0.772408
 H         1.959356        -1.962489         1.057853
 H         2.366956         1.785769        -1.957754
