19
Iteration:  1645charge 0 multiplicity 1
 C        -0.044803         0.088975        -0.307105
 C         1.380558        -0.008476         0.040638
 C         2.086107         0.702414         1.252598
 C         3.378308         0.502955         0.445093
 C         3.254262        -0.850664        -0.333867
 O         4.268426        -1.686496        -0.733728
 C         1.947725        -1.443158         0.083581
 C         2.589168         0.453328        -0.870377
 O         2.546032         1.108205        -2.092005
 H        -0.619963        -0.683571         0.318505
 H        -0.434950         1.173620        -0.143695
 H        -0.330242        -0.344799        -1.341315
 H         2.009148         1.785964         1.214559
 H         2.005749         0.345211         2.319230
 H         4.340190         1.012947         0.635525
 H         4.998872        -1.140831        -0.923964
 H         1.610009        -2.000610        -0.830523
 H         2.044256        -2.142401         0.907657
 H         2.974947         1.926811        -1.974891
