19
Iteration:   479
 C        -0.045658         0.197894        -0.184553
 C         1.326318        -0.077839         0.200932
 C         2.161498         0.787002         1.158863
 C         3.402876         0.544447         0.359793
 C         3.187045        -0.864936        -0.349870
 O         4.234296        -1.571500        -0.811168
 C         1.905134        -1.512618         0.181890
 C         2.597499         0.435620        -0.896643
 O         2.706191         0.989668        -2.182771
 H        -0.755422        -0.237467         0.622017
 H        -0.235013         1.285011        -0.188817
 H        -0.378852        -0.222252        -1.070750
 H         1.812073         1.897183         1.312155
 H         2.204071         0.386022         2.251961
 H         4.326454         1.079216         0.365895
 H         4.945166        -1.506798        -0.138509
 H         1.565753        -2.044806        -0.610353
 H         1.785655        -2.006320         1.153699
 H         2.002234         0.593802        -2.751026
