19
Iteration:  1174charge 0 multiplicity 1
 C        -0.082335         0.339880        -0.227030
 C         1.357195        -0.133527         0.073856
 C         2.097730         0.666814         1.209443
 C         3.303307         0.641153         0.376736
 C         3.330296        -0.863676        -0.263517
 O         4.436777        -1.487534        -0.804423
 C         2.030596        -1.532654         0.232001
 C         2.517028         0.270797        -0.874788
 O         2.428873         0.884737        -2.141832
 H        -0.886759         0.226410         0.458487
 H        -0.102568         1.428703        -0.613558
 H        -0.435559        -0.395345        -1.076204
 H         1.770069         1.797849         1.198044
 H         1.970769         0.293293         2.239346
 H         4.231358         1.365195         0.399142
 H         4.804937        -0.622316        -1.380274
 H         1.711085        -2.260020        -0.488277
 H         1.899583        -2.056144         1.155707
 H         3.269453         1.218013        -2.373803
