19
Iteration:  3721
 C        -0.085045         0.332396        -0.135307
 C         1.295418        -0.071756         0.028370
 C         2.021665         0.606985         1.219337
 C         3.352902         0.505180         0.473240
 C         3.217441        -0.912763        -0.333565
 O         4.411771        -1.498267        -0.686815
 C         1.878257        -1.516173         0.025394
 C         2.609976         0.398336        -0.885845
 O         2.744335         1.003941        -2.189249
 H        -0.778138        -0.131303         0.650449
 H        -0.218721         1.403760        -0.062682
 H        -0.496912         0.020685        -1.178495
 H         1.773912         1.779013         1.137526
 H         2.034596         0.012768         2.202509
 H         4.334791         0.928912         0.670821
 H         4.394677        -1.991154        -1.548875
 H         1.449316        -2.050401        -0.869233
 H         1.658565        -2.048852         0.990547
 H         2.606142         1.905478        -1.978508
