19
Iteration:  2206charge 0 multiplicity 1
 C        -0.032212         0.136758        -0.252519
 C         1.376943        -0.029244         0.047629
 C         2.152179         0.702638         1.225781
 C         3.408105         0.504084         0.427476
 C         3.218150        -0.892569        -0.283237
 O         4.311434        -1.674829        -0.646381
 C         1.851312        -1.461503        -0.158263
 C         2.619762         0.414688        -0.897575
 O         2.600811         1.149451        -2.022575
 H        -0.649406        -0.587822         0.274599
 H        -0.369382         1.282517        -0.070187
 H        -0.235261         0.037751        -1.338348
 H         1.902063         1.714596         1.463904
 H         2.046254         0.219121         2.213575
 H         4.364831         0.975595         0.682770
 H         5.040640        -1.142963        -0.448775
 H         1.544846        -1.754386        -1.203507
 H         1.686912        -2.253825         0.558673
 H         1.679589         1.442195        -2.041856
