19
Iteration:  1943charge 0 multiplicity 1
 C        -0.141330         0.232825        -0.243872
 C         1.337117        -0.055875         0.009388
 C         2.071807         0.646558         1.260475
 C         3.331719         0.380907         0.445412
 C         3.162744        -0.926499        -0.378757
 O         4.497490        -1.373675        -0.743491
 C         1.856441        -1.526359         0.093486
 C         2.582721         0.348774        -0.881846
 O         2.645626         1.094423        -2.048447
 H        -0.833175         0.180020         0.533998
 H        -0.218752         1.387721        -0.503929
 H        -0.474913        -0.359501        -1.089306
 H         1.776903         1.774305         1.262484
 H         1.947511         0.092975         2.276367
 H         4.479603         0.708683         0.502495
 H         4.415688        -1.637426        -1.586525
 H         1.297942        -2.257239        -0.628667
 H         1.980148        -1.772352         1.193043
 H         3.658675         1.179966        -2.240549
