19
Iteration:  1632
 C        -0.147986         0.131858        -0.244816
 C         1.348302        -0.052257         0.026807
 C         2.082558         0.751069         1.177424
 C         3.340654         0.483330         0.452589
 C         3.283771        -0.835400        -0.375718
 O         4.320364        -1.686573        -0.797634
 C         2.015353        -1.464776         0.102695
 C         2.583570         0.336513        -0.915329
 O         2.599636         1.140878        -2.037319
 H        -0.800051        -0.578193         0.471187
 H        -0.568516         1.113675        -0.023555
 H        -0.282159         0.062744        -1.344408
 H         1.672674         1.730288         1.170317
 H         1.969642         0.344387         2.269731
 H         4.281665         1.186721         0.557750
 H         5.218438        -1.394041        -0.394629
 H         1.558799        -2.187886        -0.601391
 H         1.823425        -1.766251         1.131324
 H         3.062890         2.035943        -1.873302
