19
Iteration:   510charge 0 multiplicity 1
 C        -0.235737         0.207102        -0.053288
 C         1.261613         0.026774         0.099447
 C         2.102913         0.812159         1.196256
 C         3.354214         0.534522         0.334909
 C         3.273739        -0.874343        -0.293572
 O         4.333980        -1.492064        -0.967252
 C         1.883516        -1.351758         0.177374
 C         2.603773         0.299420        -0.902051
 O         2.823218         0.881090        -2.122987
 H        -0.693746        -0.550045         0.634146
 H        -0.534817         1.198469         0.403837
 H        -0.630758         0.060328        -1.071470
 H         1.874422         1.881264         1.377802
 H         2.206574         0.155598         2.131335
 H         4.250366         1.078578         0.325687
 H         4.828625        -2.113615        -0.212957
 H         1.521352        -2.141473        -0.537433
 H         1.606672        -1.773269         1.174656
 H         2.867266         0.170758        -2.807228
