19
Iteration:   986
 C        -0.124399         0.324091        -0.294962
 C         1.387550        -0.003984         0.109029
 C         2.152496         0.679420         1.300872
 C         3.438281         0.589593         0.434005
 C         3.230987        -0.836440        -0.306819
 O         4.384209        -1.440245        -0.903059
 C         1.965878        -1.551723         0.191303
 C         2.551372         0.398457        -0.880216
 O         2.533393         0.798638        -2.153278
 H        -0.854634         0.205771         0.479985
 H        -0.075052         1.337619        -0.667610
 H        -0.370659        -0.367726        -1.111517
 H         1.711033         1.738081         1.299331
 H         2.099079         0.126097         2.283423
 H         4.401403         0.982739         0.512942
 H         4.606273        -2.007628        -0.195698
 H         1.637414        -2.235067        -0.574619
 H         1.845994        -2.080390         1.182440
 H         1.830751         1.402324        -2.258595
