19
Iteration:  3144
 C        -0.036843         0.258191        -0.370009
 C         1.380761        -0.004967        -0.004488
 C         2.069380         0.693003         1.245879
 C         3.349789         0.459742         0.417684
 C         3.205202        -0.947380        -0.333434
 O         4.407322        -1.635583        -0.673773
 C         1.948481        -1.503845         0.191543
 C         2.613324         0.366489        -0.923478
 O         2.545117         1.178551        -2.100570
 H        -0.657165        -0.066365         0.483755
 H        -0.259826         1.328757        -0.592939
 H        -0.477706        -0.452451        -1.142128
 H         1.732252         1.675319         1.453456
 H         1.851707         0.292745         2.247129
 H         4.414826         0.567224         0.681355
 H         4.296068        -1.858623        -1.572132
 H         1.457182        -2.223159        -0.518149
 H         1.943683        -1.865110         1.200255
 H         2.836409         2.088489        -1.840185
