19
Iteration:  3920
 C        -0.156307         0.325648        -0.157896
 C         1.279974        -0.022480         0.111460
 C         2.087948         0.696123         1.268542
 C         3.313779         0.529410         0.399779
 C         3.218777        -0.895519        -0.351829
 O         4.428547        -1.456921        -0.688042
 C         1.850945        -1.507017        -0.015149
 C         2.570415         0.334346        -0.895958
 O         2.816151         0.862780        -2.152369
 H        -0.923640        -0.396184         0.486781
 H        -0.478265         1.404590         0.093210
 H        -0.443136         0.157957        -1.247723
 H         1.759027         1.630890         1.459777
 H         2.025239         0.284600         2.250133
 H         4.369937         0.690036         0.539687
 H         4.512608        -1.483962        -1.650433
 H         1.238836        -1.939365        -0.826634
 H         1.766580        -2.209332         0.832009
 H         3.015278         1.864334        -2.099354
