19
Iteration:  4412charge 0 multiplicity 1
 C        -0.051810         0.371427        -0.201299
 C         1.357560        -0.106672        -0.028199
 C         2.081531         0.559819         1.282266
 C         3.312374         0.483907         0.444104
 C         3.284899        -0.908911        -0.400429
 O         4.459590        -1.542616        -0.559915
 C         1.904117        -1.461954        -0.008982
 C         2.583952         0.415279        -0.960721
 O         2.518154         1.099180        -2.147966
 H        -0.601399         0.389681         0.722534
 H        -0.260137         1.312483        -0.846993
 H        -0.646484        -0.421836        -0.719144
 H         1.763086         1.580487         1.509767
 H         2.048514         0.236486         2.359705
 H         4.336245         0.827199         0.656489
 H         4.229127        -2.462220        -1.023425
 H         1.455839        -2.141057        -0.760804
 H         1.696399        -2.037150         0.913385
 H         3.399392         1.609678        -2.310691
