19
Iteration:  1542charge 0 multiplicity 1
 C        -0.108812         0.207082        -0.223309
 C         1.379573         0.014209         0.053619
 C         2.030618         0.576245         1.312128
 C         3.340049         0.583369         0.467300
 C         3.290647        -0.756722        -0.268968
 O         4.297905        -1.477978        -0.809730
 C         1.976123        -1.416663         0.011357
 C         2.605097         0.402854        -0.809234
 O         2.667602         0.767353        -2.179295
 H        -0.780094         0.016130         0.827113
 H        -0.390045         1.210249        -0.460955
 H        -0.488491        -0.392033        -1.017985
 H         1.687785         1.570071         1.629271
 H         2.104185        -0.155504         2.189884
 H         4.282619         0.923733         0.638576
 H         4.896846        -0.905940        -1.297008
 H         1.741474        -1.773407        -0.964716
 H         1.744085        -2.153560         0.777244
 H         2.331812         1.727020        -2.316842
