19
Iteration:  1091charge 0 multiplicity 1
 C        -0.220421         0.082259        -0.148123
 C         1.321812        -0.077771         0.083763
 C         2.112073         0.811078         1.196975
 C         3.406479         0.627627         0.311568
 C         3.274326        -0.803826        -0.314589
 O         4.403449        -1.534581        -0.716495
 C         1.933707        -1.471856         0.159952
 C         2.618963         0.345074        -0.945240
 O         2.686173         1.036551        -2.117016
 H        -0.666910        -0.601249         0.695359
 H        -0.659984         1.073464        -0.022290
 H        -0.515683        -0.363624        -1.078625
 H         1.857631         1.828945         1.320308
 H         2.002489         0.348263         2.190548
 H         4.404083         1.115194         0.379262
 H         4.135934        -2.396978        -1.373284
 H         1.534268        -2.134761        -0.681643
 H         1.943625        -1.916316         1.185974
 H         1.915310         0.904480        -2.713171
