19
Iteration:  3265
 C        -0.069839         0.340322        -0.167285
 C         1.342276        -0.048749         0.052921
 C         1.992808         0.680872         1.209402
 C         3.221733         0.541742         0.477471
 C         3.212795        -0.848765        -0.364416
 O         4.347832        -1.568692        -0.819480
 C         1.946369        -1.547301         0.045599
 C         2.547017         0.394225        -0.823558
 O         2.841570         0.872417        -2.101246
 H        -0.793163         0.118478         0.751810
 H        -0.079012         1.466975        -0.156374
 H        -0.620598        -0.198086        -1.085874
 H         1.647849         1.711206         1.244078
 H         1.983690         0.260693         2.217496
 H         4.136251         1.087758         0.523782
 H         5.060382        -0.927575        -1.178850
 H         1.624563        -2.160663        -0.851830
 H         1.990347        -2.085110         0.995086
 H         2.440654         1.733417        -2.195234
