19
Iteration:  3948
 C        -0.129798         0.254006        -0.324748
 C         1.323133        -0.035919         0.005067
 C         2.150351         0.623863         1.227272
 C         3.365805         0.485230         0.429163
 C         3.257402        -0.861016        -0.307605
 O         4.362908        -1.519511        -0.729585
 C         1.869719        -1.457788         0.189845
 C         2.533123         0.358348        -0.916167
 O         2.716788         1.016419        -2.115766
 H        -0.687510        -0.252260         0.366737
 H        -0.432420         1.259420        -0.182019
 H        -0.233454         0.081653        -1.382680
 H         1.764735         1.755230         1.477764
 H         1.998500         0.103842         2.282364
 H         4.423578         0.720501         0.610879
 H         4.181514        -1.957267        -1.509670
 H         1.299377        -2.163769        -0.438562
 H         1.767410        -1.845817         1.216196
 H         2.946564         1.974349        -1.856354
