19
Iteration:   505
 C        -0.208218         0.207566        -0.062330
 C         1.267481         0.051868         0.112010
 C         2.136931         0.812114         1.219685
 C         3.323294         0.565911         0.330051
 C         3.277001        -0.887144        -0.293086
 O         4.325847        -1.513806        -0.938913
 C         1.900813        -1.368480         0.146405
 C         2.565717         0.281760        -0.923367
 O         2.822497         0.874487        -2.100049
 H        -0.723478        -0.508655         0.576557
 H        -0.550367         1.166546         0.290521
 H        -0.612685         0.020660        -1.096972
 H         1.752226         1.817346         1.461477
 H         2.198114         0.298991         2.144548
 H         4.360017         1.029813         0.286478
 H         4.824292        -1.964659        -0.378190
 H         1.557860        -2.123123        -0.640998
 H         1.692813        -1.730698         1.175565
 H         2.711455         0.294491        -2.860566
