19
Iteration:  3906charge 0 multiplicity 1
 C        -0.167601         0.309593        -0.100975
 C         1.324443        -0.028720        -0.004039
 C         2.071774         0.683539         1.231371
 C         3.350708         0.493478         0.499616
 C         3.153082        -0.826902        -0.349245
 O         4.365788        -1.451260        -0.682826
 C         1.872546        -1.498068        -0.071376
 C         2.596913         0.431367        -0.875686
 O         2.817682         0.772178        -2.153425
 H        -0.741807        -0.334397         0.796568
 H        -0.256434         1.315768         0.217311
 H        -0.552652         0.236106        -1.129009
 H         1.784268         1.749362         1.141818
 H         2.051698         0.185987         2.220769
 H         4.342470         0.793925         0.881880
 H         4.547187        -1.362955        -1.669459
 H         1.730030        -2.054212        -1.036927
 H         1.740696        -2.125375         0.820287
 H         2.735923         1.711030        -2.122857
