19
Iteration:  2830charge 0 multiplicity 1
 C        -0.114355         0.329502        -0.163562
 C         1.329315         0.008001         0.038258
 C         1.950432         0.705572         1.195973
 C         3.304881         0.384072         0.519799
 C         3.195099        -0.948542        -0.332283
 O         4.443623        -1.459435        -0.821726
 C         1.909550        -1.553182         0.162684
 C         2.642238         0.323180        -0.932119
 O         2.757652         1.000121        -2.139978
 H        -0.634651        -0.477341         0.388070
 H        -0.433295         1.240218         0.156994
 H        -0.366521         0.352198        -1.155879
 H         1.762072         1.834366         0.953561
 H         1.625850         0.317912         2.230335
 H         4.303970         0.672157         0.661470
 H         4.539291        -1.296821        -1.705995
 H         1.302441        -2.170544        -0.538285
 H         1.912513        -1.986679         1.170088
 H         2.904840         1.903049        -1.944290
