19
Iteration:   321
 C        -0.271150         0.276948        -0.019253
 C         1.300133         0.035487         0.072631
 C         2.078299         0.783917         1.245899
 C         3.355466         0.532171         0.418720
 C         3.210425        -0.883703        -0.264814
 O         4.329787        -1.488709        -1.008457
 C         1.880130        -1.452662         0.221509
 C         2.616031         0.328175        -0.916530
 O         2.822000         0.857250        -2.220676
 H        -0.654705        -0.573122         0.477933
 H        -0.619727         1.202250         0.478342
 H        -0.791435         0.183688        -1.090615
 H         1.898154         1.821703         1.067515
 H         2.133595         0.551540         2.429816
 H         4.338287         1.052850         0.343858
 H         4.979732        -1.678703        -0.467911
 H         1.519589        -2.206127        -0.578533
 H         1.880551        -1.904882         1.147537
 H         3.587921         0.242279        -2.557196
