19
Iteration:  2618
 C        -0.143311         0.299997        -0.301712
 C         1.379151        -0.001759        -0.006714
 C         1.985414         0.625122         1.283552
 C         3.333351         0.474058         0.481283
 C         3.274076        -0.940173        -0.288758
 O         4.433598        -1.540643        -0.822062
 C         1.932005        -1.455745         0.170159
 C         2.594167         0.282907        -0.925634
 O         2.654243         1.162846        -2.036497
 H        -0.779332        -0.392191         0.122792
 H        -0.394844         1.263360         0.016748
 H        -0.303902         0.310430        -1.407553
 H         1.735250         1.770412         1.266891
 H         1.823862         0.057337         2.279335
 H         4.267186         0.915826         0.597042
 H         3.977838        -2.034432        -1.678271
 H         1.536143        -2.394838        -0.275940
 H         1.970100        -1.632505         1.253350
 H         3.244023         0.804505        -2.683105
