19
Iteration:  3771
 C        -0.000880         0.247461        -0.315677
 C         1.349252        -0.050856         0.054996
 C         2.151472         0.699288         1.256308
 C         3.390186         0.516954         0.318018
 C         3.222600        -0.893784        -0.319627
 O         4.374393        -1.671244        -0.540940
 C         1.873869        -1.555138         0.049818
 C         2.596111         0.387231        -0.905621
 O         2.481977         1.228565        -2.107315
 H        -0.708498        -0.467567         0.227569
 H        -0.209495         1.344756        -0.363423
 H        -0.242702        -0.254072        -1.225524
 H         1.921214         1.737172         1.360658
 H         2.263865         0.122386         2.181383
 H         4.411208         0.799321         0.436279
 H         4.231309        -2.170320        -1.395542
 H         1.485189        -1.942579        -0.878016
 H         1.666586        -2.148289         0.949017
 H         3.217891         1.881619        -1.874808
