19
Iteration:  3202
 C        -0.118942         0.204742        -0.220281
 C         1.316960         0.004899         0.061171
 C         2.063721         0.677720         1.274365
 C         3.374735         0.446659         0.515499
 C         3.151266        -0.876921        -0.362974
 O         4.414593        -1.404509        -0.751456
 C         1.828998        -1.420595         0.092619
 C         2.631152         0.403904        -0.870820
 O         2.783512         0.870407        -2.178741
 H        -0.658674        -0.436970         0.370400
 H        -0.437231         1.191725        -0.003055
 H        -0.301439         0.076326        -1.312993
 H         1.848747         1.712050         1.245322
 H         1.902818         0.012914         2.196749
 H         4.360311         0.863543         0.678690
 H         4.147734        -2.033667        -1.527146
 H         1.321550        -1.929401        -0.713598
 H         1.659538        -1.996633         0.994865
 H         2.757291         1.830198        -2.223170
