19
Iteration:  4894
 C        -0.158156         0.347145        -0.107884
 C         1.278714        -0.036637        -0.030396
 C         2.000615         0.561063         1.201683
 C         3.318290         0.483059         0.358802
 C         3.204032        -0.860834        -0.322151
 O         4.422600        -1.449098        -0.665517
 C         1.847497        -1.552651         0.036413
 C         2.542355         0.354416        -0.909035
 O         2.904931         0.992759        -2.108631
 H        -0.580726         0.050535         0.785405
 H        -0.066539         1.421170        -0.147073
 H        -0.647306         0.060599        -1.002987
 H         1.710758         1.637951         1.199746
 H         1.914863        -0.015842         2.118825
 H         4.310863         0.882400         0.623914
 H         4.286021        -1.970752        -1.479088
 H         1.422936        -2.152778        -0.755190
 H         1.804705        -2.112486         0.928920
 H         2.947154         1.980934        -1.919632
