19
Iteration:  3186
 C        -0.196548         0.309869        -0.276037
 C         1.313445        -0.021088         0.085872
 C         2.077278         0.729280         1.230439
 C         3.320009         0.495644         0.399025
 C         3.266144        -0.877590        -0.226753
 O         4.371602        -1.441135        -0.803384
 C         1.918800        -1.592351         0.082023
 C         2.564691         0.313342        -0.879549
 O         2.796024         0.967487        -2.085049
 H        -0.957202        -0.430844         0.337596
 H        -0.405012         1.452825        -0.157115
 H        -0.404595         0.149463        -1.401616
 H         1.831716         1.854669         1.242010
 H         2.129713         0.417313         2.227295
 H         4.377114         0.815597         0.568930
 H         4.185513        -2.312082        -1.402086
 H         1.587646        -2.322051        -0.718551
 H         1.903741        -2.148406         1.061219
 H         2.646000         1.846615        -1.826105
