19
Iteration:  2813charge 0 multiplicity 1
 C        -0.179647         0.248538        -0.271612
 C         1.289861        -0.094949         0.031786
 C         2.062179         0.753421         1.216447
 C         3.376995         0.501155         0.423247
 C         3.302502        -0.877212        -0.302421
 O         4.379548        -1.546503        -0.836035
 C         1.882554        -1.474601         0.089984
 C         2.552219         0.334166        -0.819416
 O         2.747988         0.952476        -2.012552
 H        -0.913787        -0.389951         0.234004
 H        -0.281603         1.349864         0.179105
 H        -0.385579         0.309802        -1.427089
 H         1.749914         1.752560         1.262433
 H         1.988601         0.363304         2.218705
 H         4.344229         1.084579         0.598083
 H         4.260670        -1.251555        -1.741270
 H         1.581296        -2.125769        -0.728287
 H         1.788411        -2.029712         1.055930
 H         3.126640         1.772677        -1.792402
