19
Iteration:  2878
 C        -0.125331         0.219105        -0.192286
 C         1.305576         0.010039         0.103541
 C         2.096742         0.631051         1.300410
 C         3.313255         0.598134         0.422608
 C         3.269283        -0.863444        -0.228017
 O         4.386716        -1.558787        -0.726528
 C         1.867920        -1.451313        -0.114157
 C         2.542952         0.455781        -0.859805
 O         2.748858         0.903868        -2.153625
 H        -0.736469        -0.034128         0.624717
 H        -0.295703         1.320897        -0.474796
 H        -0.439514        -0.222067        -1.128633
 H         2.027586         1.643490         1.719575
 H         2.449255        -0.162458         2.050450
 H         4.193859         1.276488         0.678869
 H         4.189886        -2.346470        -1.382549
 H         1.639181        -1.867094        -1.074893
 H         1.652815        -2.195231         0.690427
 H         2.644120         1.900425        -2.108832
