19
Iteration:   150charge 0 multiplicity 1
 C        -0.137080         0.165008        -0.013660
 C         1.358185         0.006535         0.075396
 C         2.055260         0.769018         1.229448
 C         3.398734         0.554956         0.436811
 C         3.155509        -0.868069        -0.399105
 O         4.207931        -1.454694        -0.881915
 C         1.933849        -1.425449         0.092220
 C         2.593151         0.444868        -0.883409
 O         2.809133         0.817752        -2.219854
 H        -0.539843         0.159229         1.094291
 H        -0.408425         1.139798        -0.495150
 H        -0.661109        -0.647911        -0.567671
 H         1.658186         1.872907         1.031851
 H         1.965531         0.594016         2.400263
 H         4.344019         1.082758         0.482262
 H         4.601815        -2.222599        -0.171732
 H         1.423590        -1.975304        -0.656174
 H         2.068558        -1.940928         1.104342
 H         3.714665         0.400341        -2.366203
