19
Iteration:   766
 C        -0.146436         0.305154        -0.229942
 C         1.333709        -0.018466         0.058809
 C         2.126710         0.707552         1.271261
 C         3.382992         0.596809         0.410579
 C         3.261804        -0.844787        -0.227338
 O         4.383352        -1.329093        -0.952179
 C         1.911268        -1.489527         0.182940
 C         2.573336         0.296673        -0.849714
 O         2.613602         0.809966        -2.165201
 H        -0.718990         0.015174         0.730278
 H        -0.286401         1.375897        -0.184220
 H        -0.440398        -0.030902        -1.226472
 H         1.901335         1.769641         1.517073
 H         2.149684         0.110746         2.148008
 H         4.476426         0.788739         0.662908
 H         4.632849        -2.204699        -0.343295
 H         1.508271        -2.110553        -0.574291
 H         1.555715        -2.018814         1.172903
 H         2.685584         0.010648        -2.739125
