19
Iteration:  1531charge 0 multiplicity 1
 C        -0.082385         0.270978        -0.234207
 C         1.324896        -0.056484         0.067957
 C         2.064680         0.627141         1.282163
 C         3.380010         0.592645         0.546469
 C         3.249840        -0.766303        -0.289235
 O         4.324469        -1.464689        -0.882968
 C         1.952102        -1.522668         0.022272
 C         2.516403         0.450565        -0.853271
 O         2.686153         0.761840        -2.163613
 H        -0.761813         0.026150         0.774045
 H        -0.201385         1.281363        -0.566004
 H        -0.438391        -0.401631        -0.990920
 H         1.696335         1.611327         1.613042
 H         2.163167        -0.036047         2.210753
 H         4.205329         1.101649         0.874663
 H         5.208702        -0.864909        -0.808735
 H         1.565566        -2.072246        -0.808787
 H         1.978097        -2.167497         0.902601
 H         2.282391         1.637968        -2.273580
