19
Iteration:  3085charge 0 multiplicity 1
 C        -0.136373         0.354294        -0.189079
 C         1.344223        -0.089013         0.025085
 C         2.048861         0.619334         1.230869
 C         3.348939         0.561465         0.478959
 C         3.245532        -0.891886        -0.292454
 O         4.387616        -1.529588        -0.708303
 C         1.889809        -1.551952         0.012368
 C         2.645723         0.387091        -0.870478
 O         2.679571         0.988244        -2.157701
 H        -0.719436         0.316041         0.872160
 H        -0.194685         1.408243        -0.662011
 H        -0.622365        -0.227789        -0.965729
 H         1.635350         1.640383         1.187498
 H         1.968025         0.121488         2.084360
 H         4.277817         1.032795         0.770944
 H         4.235013        -1.907287        -1.654604
 H         1.621430        -2.235826        -0.797453
 H         1.911685        -2.101554         1.001216
 H         2.911674         1.967162        -2.025476
