19
Iteration:  3792charge 0 multiplicity 1
 C        -0.061212         0.256044        -0.350124
 C         1.344376        -0.015997         0.030686
 C         2.105939         0.719189         1.199759
 C         3.387016         0.433559         0.432148
 C         3.284546        -0.911648        -0.327850
 O         4.360275        -1.712709        -0.652112
 C         1.974512        -1.480060         0.101305
 C         2.617031         0.366848        -0.911385
 O         2.476337         1.173706        -2.008953
 H        -0.911405        -0.119920         0.282346
 H        -0.059919         1.395936        -0.448464
 H        -0.386985        -0.119677        -1.328731
 H         1.795710         1.772645         0.953548
 H         1.932890         0.291279         2.226964
 H         4.279082         0.998019         0.593945
 H         4.217108        -1.865560        -1.679585
 H         1.475642        -2.139882        -0.591931
 H         2.092406        -1.854269         1.127771
 H         3.086347         1.872916        -1.947784
