19
Iteration:  1291charge 0 multiplicity 1
 C        -0.194417         0.170417        -0.188925
 C         1.333163        -0.081844         0.041946
 C         2.102343         0.779875         1.158498
 C         3.357462         0.539868         0.435027
 C         3.246666        -0.826441        -0.314551
 O         4.402387        -1.389528        -0.880625
 C         1.994819        -1.508565         0.205760
 C         2.605396         0.352815        -0.874611
 O         2.640977         0.886472        -2.157622
 H        -0.754635        -0.456530         0.536646
 H        -0.466438         1.175720         0.033882
 H        -0.561382        -0.202266        -1.109429
 H         1.685705         1.729418         1.245238
 H         2.027589         0.231386         2.165342
 H         4.353310         1.154498         0.343813
 H         4.813395        -2.201935        -0.265206
 H         1.486469        -2.212730        -0.467832
 H         1.917128        -1.998458         1.240961
 H         2.201834         1.748371        -1.987218
