19
Iteration:  2483
 C        -0.168759         0.235227        -0.350399
 C         1.351759        -0.031284         0.078410
 C         2.111720         0.693248         1.215167
 C         3.369030         0.399821         0.443469
 C         3.207475        -0.965099        -0.282060
 O         4.401317        -1.364881        -0.790490
 C         1.845001        -1.487727         0.074878
 C         2.623669         0.301232        -0.845038
 O         2.667719         1.032264        -1.999543
 H        -0.824571        -0.132779         0.335864
 H        -0.366883         1.309883        -0.610321
 H        -0.412343        -0.327258        -1.191974
 H         1.890312         1.792158         1.376685
 H         1.943432         0.334066         2.311147
 H         4.335781         0.878294         0.568163
 H         4.167541        -1.584764        -1.733383
 H         1.442917        -2.019511        -0.771143
 H         1.864550        -2.086689         1.032217
 H         3.512327         1.443576        -1.987234
