19
Iteration:   901charge 0 multiplicity 1
 C        -0.104704         0.074136        -0.058899
 C         1.348773         0.062051         0.010991
 C         2.141209         0.705411         1.197316
 C         3.374275         0.556193         0.360422
 C         3.227690        -0.785965        -0.292737
 O         4.340930        -1.726174        -0.713484
 C         1.896587        -1.389845         0.137134
 C         2.593665         0.379619        -0.999811
 O         2.622179         0.986634        -2.229622
 H        -0.541362        -0.447093         0.749698
 H        -0.503791         1.170986         0.020476
 H        -0.664704        -0.342854        -1.031505
 H         2.007516         1.812810         1.438985
 H         1.977294         0.232305         2.089705
 H         4.163075         1.227901         0.316801
 H         5.314935        -1.189274        -0.522913
 H         1.461957        -1.899816        -0.780373
 H         1.787406        -1.902045         1.136944
 H         2.592497         1.967389        -1.896197
