19
Iteration:  3569charge 0 multiplicity 1
 C        -0.143287         0.296672        -0.235765
 C         1.380950        -0.004807         0.034969
 C         2.230764         0.589213         1.199840
 C         3.453475         0.467952         0.327051
 C         3.209324        -0.907243        -0.350756
 O         4.429715        -1.622498        -0.450730
 C         1.832342        -1.508519        -0.054764
 C         2.611543         0.443820        -0.930922
 O         2.534851         1.139120        -2.112784
 H        -0.877439        -0.297409         0.445384
 H        -0.555536         1.341581         0.000195
 H        -0.552703        -0.020154        -1.344393
 H         1.905396         1.516497         1.527631
 H         2.038167         0.022347         2.109994
 H         4.446901         0.886182         0.408418
 H         4.436818        -2.163820        -1.169770
 H         1.313066        -2.005537        -0.919830
 H         1.698306        -2.110165         0.838436
 H         2.555541         2.069910        -2.053331
