19
Iteration:  3274
 C        -0.087939         0.343900        -0.211854
 C         1.316780        -0.060619        -0.007718
 C         1.964285         0.719464         1.284804
 C         3.315274         0.474416         0.505266
 C         3.205961        -0.868139        -0.411249
 O         4.313640        -1.523276        -0.816028
 C         1.985159        -1.570823         0.141808
 C         2.589253         0.311047        -0.908924
 O         2.813902         0.943135        -2.105686
 H        -0.589360         0.124848         0.798519
 H        -0.233110         1.430420        -0.417015
 H        -0.629946        -0.056488        -1.039246
 H         1.679933         1.797076         1.170966
 H         1.887820         0.177189         2.175423
 H         4.181880         1.059056         0.648377
 H         5.028372        -0.877607        -1.148386
 H         1.398398        -2.284726        -0.524520
 H         2.038085        -2.090343         1.130123
 H         2.471486         1.827733        -2.061636
