19
Iteration:  2209
 C        -0.041761         0.131298        -0.264758
 C         1.347535         0.000202         0.044075
 C         2.155339         0.697056         1.238893
 C         3.403887         0.487695         0.447177
 C         3.239785        -0.873803        -0.301229
 O         4.312064        -1.692486        -0.639699
 C         1.844772        -1.465875        -0.154193
 C         2.629514         0.418627        -0.910125
 O         2.585371         1.145720        -2.026709
 H        -0.569529        -0.597957         0.279837
 H        -0.376828         1.194550        -0.088873
 H        -0.235170         0.027480        -1.318284
 H         1.962444         1.759758         1.503842
 H         2.076115         0.157119         2.151307
 H         4.500831         0.958964         0.605263
 H         5.127154        -1.018880        -0.387571
 H         1.572033        -1.711173        -1.155881
 H         1.652767        -2.255437         0.597611
 H         1.717097         1.515397        -2.024229
