19
Iteration:  1762charge 0 multiplicity 1
 C        -0.194737         0.136019        -0.227463
 C         1.305690         0.018773         0.050555
 C         2.142141         0.626678         1.336344
 C         3.408846         0.485393         0.468316
 C         3.191049        -0.802340        -0.335871
 O         4.327410        -1.514902        -0.784969
 C         1.853446        -1.455356        -0.006620
 C         2.584212         0.508822        -0.864468
 O         2.761291         0.924840        -2.160252
 H        -0.850511        -0.263395         0.664189
 H        -0.426481         1.134601        -0.462122
 H        -0.462916        -0.470631        -1.067535
 H         1.827223         1.580954         1.765794
 H         2.054359        -0.053660         2.271876
 H         4.542927         0.844257         0.378688
 H         5.063131        -1.167924        -0.436337
 H         1.528420        -1.952024        -0.987286
 H         1.691436        -2.287774         0.794624
 H         2.860171         1.889496        -2.157662
