19
Iteration:  3031
 C        -0.181137         0.219046        -0.232113
 C         1.280058        -0.087570         0.201797
 C         2.138706         0.717162         1.243015
 C         3.362125         0.512839         0.407379
 C         3.160636        -0.856847        -0.302113
 O         4.389618        -1.411580        -0.784772
 C         1.786202        -1.465809         0.044641
 C         2.576579         0.418559        -0.851917
 O         2.889823         0.843553        -2.141981
 H        -0.994371        -0.313994         0.356130
 H        -0.298366         1.292918         0.067433
 H        -0.336108        -0.045468        -1.227105
 H         1.805435         1.801051         1.345240
 H         2.112973         0.168857         2.240234
 H         4.358743         0.592281         0.709768
 H         4.269888        -1.566933        -1.804632
 H         1.445583        -1.900636        -0.885774
 H         1.724726        -2.251224         0.821839
 H         2.707252         1.849502        -2.223293
