19
Iteration:  1994
 C        -0.073107         0.120013        -0.331244
 C         1.368930        -0.006255         0.101850
 C         2.061421         0.671522         1.237470
 C         3.362250         0.568009         0.490255
 C         3.239746        -0.777090        -0.351678
 O         4.338198        -1.699586        -0.779374
 C         1.985821        -1.463975         0.018409
 C         2.600205         0.440093        -0.815414
 O         2.677004         1.110946        -2.064156
 H        -0.735467        -0.601328         0.355820
 H        -0.454067         1.083456        -0.150820
 H        -0.344264        -0.213888        -1.387125
 H         1.779845         1.698824         1.339440
 H         1.946206         0.384856         2.280142
 H         4.314732         1.104728         0.676509
 H         3.805067        -2.474036        -1.241529
 H         1.509226        -1.968761        -0.818123
 H         1.905304        -2.161637         0.844820
 H         2.233795         1.970041        -1.901325
