19
Iteration:  3741charge 0 multiplicity 1
 C        -0.160951         0.302766        -0.247633
 C         1.293159         0.034948        -0.016057
 C         2.118951         0.599594         1.302772
 C         3.415105         0.395367         0.387249
 C         3.235894        -0.899434        -0.423706
 O         4.457258        -1.529483        -0.560338
 C         1.906526        -1.446371         0.044468
 C         2.587827         0.408365        -0.937527
 O         2.595427         1.061824        -2.144962
 H        -0.722895        -0.190156         0.712375
 H        -0.610548         1.258152        -0.084754
 H        -0.498813         0.042026        -1.291367
 H         1.979634         1.654256         1.429212
 H         2.041542        -0.086140         2.127692
 H         4.454022         0.622793         0.495367
 H         4.287566        -2.265617        -1.053829
 H         1.460222        -2.072499        -0.785721
 H         1.751567        -2.100805         0.960864
 H         2.995662         1.911694        -1.845350
