19
Iteration:  1638
 C        -0.101460         0.109637        -0.265889
 C         1.377275        -0.045498         0.016372
 C         2.103997         0.725703         1.229962
 C         3.346681         0.477365         0.461038
 C         3.255020        -0.818560        -0.364216
 O         4.285006        -1.707999        -0.768981
 C         1.990740        -1.451725         0.099146
 C         2.593442         0.392475        -0.905750
 O         2.569747         1.123485        -2.057114
 H        -0.636804        -0.575058         0.274673
 H        -0.529954         1.137982        -0.074840
 H        -0.310319        -0.161741        -1.325503
 H         1.841682         1.843700         1.132863
 H         2.035391         0.386121         2.216113
 H         4.121327         1.132174         0.662723
 H         5.163600        -1.089795        -0.615889
 H         1.635569        -2.008383        -0.775620
 H         1.917391        -1.938348         1.111917
 H         3.025919         1.971484        -1.944188
