19
Iteration:   233charge 0 multiplicity 1
 C         0.027471         0.372935        -0.367792
 C         1.387593        -0.005801         0.021249
 C         2.155380         0.728482         1.218961
 C         3.466586         0.534501         0.381846
 C         3.238077        -0.946827        -0.333453
 O         4.408116        -1.620934        -0.768309
 C         1.905577        -1.476337         0.239528
 C         2.611181         0.283564        -0.901412
 O         2.226093         1.044624        -2.040985
 H        -0.607395         0.482630         0.481905
 H         0.109352         1.354498        -0.833967
 H        -0.418359        -0.343180        -1.180822
 H         2.051346         1.745089         1.313228
 H         2.085466         0.258535         2.157693
 H         4.462308         0.934229         0.462548
 H         4.978354        -1.913712         0.151275
 H         1.599076        -2.312929        -0.500444
 H         1.846778        -1.872749         1.213597
 H         2.962608         1.030561        -2.729614
