19
Iteration:  1172charge 0 multiplicity 1
 C        -0.069277         0.347626        -0.229918
 C         1.352202        -0.135944         0.067966
 C         2.084106         0.666663         1.213774
 C         3.313569         0.644654         0.390242
 C         3.333911        -0.872799        -0.250333
 O         4.443413        -1.480650        -0.818227
 C         2.028757        -1.515381         0.223610
 C         2.490554         0.259283        -0.863787
 O         2.431424         0.876494        -2.152650
 H        -0.925383         0.210926         0.505287
 H        -0.096702         1.405783        -0.621235
 H        -0.417629        -0.365035        -1.073173
 H         1.755986         1.693125         1.174034
 H         2.035421         0.310500         2.282954
 H         4.245486         1.378543         0.352867
 H         4.817098        -0.633781        -1.374214
 H         1.706771        -2.221263        -0.497563
 H         1.890307        -2.037581         1.180278
 H         3.313465         1.212643        -2.315921
