19
Iteration:  3066
 C        -0.113077         0.379486        -0.150550
 C         1.276340        -0.046809        -0.051891
 C         1.948422         0.586674         1.148799
 C         3.319221         0.380281         0.469874
 C         3.222145        -0.845696        -0.336154
 O         4.451625        -1.403916        -0.787734
 C         1.953955        -1.490151         0.176150
 C         2.548593         0.346690        -0.917253
 O         2.817595         0.911678        -2.091982
 H        -0.473996         0.118220         0.817536
 H        -0.094104         1.488560        -0.290189
 H        -0.776483         0.135292        -0.957534
 H         1.812686         1.663687         1.297245
 H         1.722475        -0.013853         2.198950
 H         4.350577         0.777972         0.637422
 H         4.130272        -1.876881        -1.566956
 H         1.518031        -2.201332        -0.552029
 H         1.832480        -1.825818         1.197400
 H         2.549614         1.908006        -2.082438
