19
Iteration:   952
 C        -0.029061         0.329887        -0.182200
 C         1.387147        -0.017933         0.114387
 C         2.078145         0.721737         1.270254
 C         3.366000         0.499228         0.383226
 C         3.208388        -0.861865        -0.246532
 O         4.362045        -1.436741        -0.951686
 C         1.928555        -1.520242         0.202315
 C         2.511177         0.303328        -0.863185
 O         2.676287         0.825101        -2.181993
 H        -0.805323         0.089483         0.593563
 H        -0.232892         1.357995        -0.390497
 H        -0.268652        -0.139126        -1.112554
 H         1.538264         1.705107         1.260593
 H         1.860965         0.298088         2.333512
 H         4.282019         1.058925         0.656812
 H         5.151364        -1.053159        -0.622537
 H         1.594690        -2.072658        -0.635377
 H         1.741963        -2.011954         1.189306
 H         1.861830         1.124541        -2.585214
