19
Iteration:  1804charge 0 multiplicity 1
 C        -0.152239         0.151373        -0.265529
 C         1.352279        -0.056555         0.014879
 C         2.020310         0.745110         1.181248
 C         3.355429         0.526469         0.424731
 C         3.278353        -0.896909        -0.310438
 O         4.292495        -1.736258        -0.745617
 C         1.974610        -1.529031         0.084015
 C         2.614753         0.412100        -0.847468
 O         2.729619         1.198206        -2.056531
 H        -0.742116        -0.569566         0.396830
 H        -0.484060         1.195960         0.053558
 H        -0.451207        -0.148917        -1.238481
 H         1.793678         1.830154         1.107340
 H         1.872588         0.331161         2.187486
 H         4.428654         1.084524         0.636924
 H         4.573558        -1.234540        -1.613709
 H         1.767268        -2.297469        -0.620708
 H         2.014052        -1.798822         1.128208
 H         2.290954         2.007140        -1.883722
