19
Iteration:  1048
 C        -0.184436         0.078474        -0.112894
 C         1.346004         0.006291         0.002563
 C         2.133397         0.773913         1.136075
 C         3.388395         0.489006         0.322817
 C         3.295676        -0.867980        -0.357356
 O         4.439371        -1.547526        -0.685434
 C         1.977543        -1.453239         0.214167
 C         2.536430         0.258257        -1.005628
 O         2.512455         1.182851        -2.099315
 H        -0.882046        -0.320419         0.759317
 H        -0.361655         1.164297        -0.099794
 H        -0.585360        -0.136076        -1.065315
 H         1.883719         1.791776         1.114307
 H         2.065577         0.364204         2.197368
 H         4.390284         1.009857         0.216278
 H         4.268777        -2.526348        -0.406642
 H         1.581032        -2.077696        -0.594978
 H         1.879358        -1.873183         1.216516
 H         3.349384         1.059497        -2.486030
