19
Iteration:  1004
 C         0.022888         0.225742        -0.268242
 C         1.377647        -0.067810         0.173080
 C         2.120696         0.771511         1.273207
 C         3.348363         0.523059         0.415994
 C         3.262168        -0.860048        -0.306867
 O         4.350592        -1.485619        -0.784942
 C         2.003653        -1.409662         0.089987
 C         2.547875         0.372272        -0.916713
 O         2.460758         0.857920        -2.209835
 H        -0.667284         0.071613         0.676774
 H        -0.135926         1.263051        -0.576771
 H        -0.335857        -0.394691        -1.053228
 H         1.825259         1.772598         1.366923
 H         2.140677         0.188815         2.264317
 H         4.370284         1.035482         0.675005
 H         4.419873        -2.360490        -0.433916
 H         1.463538        -1.945350        -0.694782
 H         2.103286        -2.007111         0.979716
 H         2.367638         1.785618        -2.125703
