19
Iteration:   518charge 0 multiplicity 1
 C        -0.259579         0.199358         0.009093
 C         1.307525         0.024608         0.037236
 C         2.077381         0.746648         1.158224
 C         3.416744         0.534798         0.374641
 C         3.224549        -0.845578        -0.280929
 O         4.339724        -1.471017        -0.975298
 C         1.843806        -1.409347         0.260336
 C         2.617643         0.369255        -0.906291
 O         2.824512         0.891365        -2.183072
 H        -0.712534        -0.560977         0.567427
 H        -0.531846         1.220433         0.375611
 H        -0.662647         0.156503        -1.095239
 H         2.012576         1.771008         1.178256
 H         1.971985         0.332453         2.151889
 H         4.282198         1.145600         0.460712
 H         4.732973        -2.199290        -0.234560
 H         1.282654        -2.082507        -0.587994
 H         1.853251        -1.953235         1.235412
 H         3.145861         0.046192        -2.662675
