19
Iteration:  2111charge 0 multiplicity 1
 C        -0.141343         0.208166        -0.242891
 C         1.338723         0.039417         0.038187
 C         2.055968         0.686982         1.299189
 C         3.406469         0.473750         0.635633
 C         3.284816        -0.850744        -0.325238
 O         4.359539        -1.447431        -0.978568
 C         1.853642        -1.457227        -0.082821
 C         2.637594         0.404677        -0.742335
 O         2.643814         0.944515        -2.073919
 H        -0.653859         0.198935         0.726052
 H        -0.311325         1.185835        -0.715079
 H        -0.568662        -0.557882        -0.869656
 H         1.710037         1.751271         1.497742
 H         1.779526         0.257824         2.268057
 H         4.417272         1.037528         0.862238
 H         4.369752        -2.473963        -0.579744
 H         1.584786        -2.025158        -0.984235
 H         1.575247        -2.175745         0.783313
 H         3.549264         0.826463        -2.415636
