19
Iteration:  3688charge 0 multiplicity 1
 C        -0.180428         0.317431        -0.212898
 C         1.265635        -0.014545         0.058390
 C         2.046053         0.667118         1.257478
 C         3.339776         0.510104         0.508141
 C         3.243123        -0.869381        -0.268331
 O         4.321563        -1.477701        -0.911714
 C         1.923757        -1.499794         0.046980
 C         2.566078         0.392177        -0.763067
 O         2.914646         0.815621        -2.133805
 H        -0.791137         0.004488         0.675063
 H        -0.435406         1.338360        -0.416817
 H        -0.451947        -0.322453        -1.128323
 H         1.830630         1.869159         1.586094
 H         1.981382         0.236988         2.373992
 H         4.248502         1.009425         0.672667
 H         4.455878        -1.002017        -1.689608
 H         1.585640        -2.081620        -0.862362
 H         1.640505        -2.194935         0.867436
 H         2.454819         1.716995        -2.175378
