19
Iteration:  2666
 C        -0.089811         0.174701        -0.300137
 C         1.401166         0.044628         0.064058
 C         2.111795         0.692646         1.318698
 C         3.352533         0.465631         0.452011
 C         3.212404        -0.937617        -0.275215
 O         4.397084        -1.495485        -0.715464
 C         1.824222        -1.433598        -0.024867
 C         2.584203         0.440865        -0.880054
 O         2.609622         1.008763        -2.079102
 H        -0.614292        -0.360241         0.604845
 H        -0.477663         1.215555        -0.496437
 H        -0.350157        -0.365790        -1.196938
 H         1.985215         1.799329         1.444782
 H         2.207201         0.080341         2.219501
 H         4.431856         0.774750         0.707356
 H         4.186588        -2.089170        -1.361114
 H         1.454807        -1.774450        -1.016794
 H         1.561726        -2.209648         0.693830
 H         3.482521         1.385704        -2.436185
