19
Iteration:   686charge 0 multiplicity 1
 C        -0.164278         0.070423        -0.088560
 C         1.321976         0.060271         0.080303
 C         2.122222         0.816770         1.189353
 C         3.359053         0.542130         0.308133
 C         3.200847        -0.917399        -0.412040
 O         4.270496        -1.644482        -0.785851
 C         1.958226        -1.415039         0.163100
 C         2.564685         0.410364        -0.897413
 O         2.751686         1.080465        -2.155229
 H        -0.550098        -0.478422         0.851420
 H        -0.532762         1.101379        -0.182667
 H        -0.458296        -0.524621        -0.904698
 H         2.018732         1.838009         1.257717
 H         2.148533         0.442284         2.218478
 H         4.344348         0.931922         0.585103
 H         4.817003        -1.655408         0.001807
 H         1.370933        -2.089620        -0.519276
 H         2.081964        -1.728321         1.220964
 H         2.784314         0.413062        -2.901902
