19
Iteration:  2341charge 0 multiplicity 1
 C        -0.161378         0.230998        -0.265011
 C         1.296938        -0.050416         0.064243
 C         2.106543         0.589677         1.382678
 C         3.268061         0.633923         0.460471
 C         3.281559        -0.833289        -0.334076
 O         4.346312        -1.599347        -0.759604
 C         1.912329        -1.494822        -0.083354
 C         2.605665         0.439290        -0.793981
 O         2.837183         1.015638        -2.088159
 H        -0.819009         0.303490         0.625608
 H        -0.254937         1.287721        -0.857347
 H        -0.562759        -0.547704        -0.953958
 H         1.658540         1.547460         1.763406
 H         2.205669        -0.090040         2.209511
 H         4.196746         1.129995         0.594169
 H         4.279426        -1.657663        -1.689310
 H         1.626398        -1.992595        -0.988436
 H         1.740132        -2.215363         0.732467
 H         2.025620         1.419079        -2.340144
