19
Iteration:   594charge 0 multiplicity 1
 C        -0.034318         0.310774        -0.298857
 C         1.408385         0.021469         0.148797
 C         2.165658         0.699194         1.273325
 C         3.424636         0.491984         0.425536
 C         3.209185        -0.866124        -0.320349
 O         4.283313        -1.511765        -0.816510
 C         1.974395        -1.475313         0.180351
 C         2.556695         0.328895        -0.901173
 O         2.475798         0.939833        -2.181598
 H        -0.591996         0.239807         0.563414
 H        -0.120105         1.357208        -0.667027
 H        -0.514147        -0.410963        -1.084976
 H         1.831017         1.730711         1.487841
 H         2.045874         0.168946         2.213965
 H         4.347228         0.982778         0.474755
 H         5.043590        -1.430760        -0.189696
 H         1.477344        -1.975294        -0.695936
 H         1.864823        -1.828350         1.160160
 H         2.742716         0.216745        -2.693527
