19
Iteration:  3588
 C        -0.057116         0.305000        -0.185038
 C         1.329522         0.003765        -0.003830
 C         2.110473         0.601004         1.203244
 C         3.330578         0.401554         0.406948
 C         3.234620        -0.892363        -0.415379
 O         4.421803        -1.587449        -0.552654
 C         1.863846        -1.451852         0.048646
 C         2.629205         0.366685        -0.962410
 O         2.599135         1.120078        -2.143824
 H        -0.665436        -0.350025         0.314514
 H        -0.170116         1.349368         0.057387
 H        -0.418376         0.098676        -1.213455
 H         1.767767         1.717072         1.490117
 H         2.002709         0.185743         2.278767
 H         4.384986         0.593041         0.715647
 H         4.460050        -2.081135        -1.338907
 H         1.505418        -2.135530        -0.736459
 H         1.858033        -1.889911         1.078417
 H         2.385192         2.013984        -1.914415
