19
Iteration:  1476
 C        -0.121460         0.175974        -0.256512
 C         1.303779        -0.098522         0.030435
 C         2.067090         0.713523         1.203886
 C         3.406269         0.492262         0.339291
 C         3.252382        -0.891661        -0.308099
 O         4.481601        -1.417239        -0.763110
 C         1.933359        -1.494156         0.185234
 C         2.581211         0.358820        -0.874731
 O         2.547156         1.040777        -2.089031
 H        -0.828894        -0.351535         0.618116
 H        -0.290377         1.230404        -0.299533
 H        -0.436961        -0.351258        -1.128219
 H         1.666472         1.736486         1.139023
 H         2.177811         0.376173         2.283905
 H         4.352101         0.953447         0.395799
 H         4.300098        -2.424922        -1.147960
 H         1.458506        -2.124963        -0.545508
 H         1.887496        -1.954830         1.173401
 H         2.920302         1.893370        -1.995337
