19
Iteration:  1422charge 0 multiplicity 1
 C        -0.138213         0.004637        -0.163528
 C         1.328190        -0.004496         0.006540
 C         2.127872         0.701189         1.159443
 C         3.407970         0.634099         0.306589
 C         3.276992        -0.846419        -0.327934
 O         4.341552        -1.666358        -0.708249
 C         1.968479        -1.428752         0.124022
 C         2.611752         0.369142        -0.942182
 O         2.497030         1.124957        -2.116924
 H        -0.690215        -0.567528         0.669635
 H        -0.584090         0.949051        -0.285219
 H        -0.283235        -0.333925        -1.140914
 H         1.956969         1.741689         1.334495
 H         2.158698         0.237632         2.216797
 H         4.321978         1.061366         0.691785
 H         5.164145        -1.533321        -0.089666
 H         1.532511        -2.041458        -0.654822
 H         1.834905        -1.919063         1.112974
 H         2.902111         1.942669        -1.923928
