19
Iteration:  2495
 C        -0.159739         0.235604        -0.335143
 C         1.285518        -0.084610         0.066218
 C         2.173867         0.680255         1.284070
 C         3.341130         0.544472         0.354102
 C         3.170517        -0.932121        -0.331751
 O         4.435646        -1.375461        -0.748614
 C         1.820964        -1.602430         0.066701
 C         2.528063         0.298860        -0.829991
 O         2.735280         1.039199        -1.997368
 H        -0.782272         0.237735         0.450929
 H        -0.142378         1.324615        -0.635330
 H        -0.493665        -0.320183        -1.158793
 H         1.898521         1.783237         1.218316
 H         2.278543         0.151988         2.290403
 H         4.376126         1.009277         0.439362
 H         4.455495        -1.723011        -1.571541
 H         1.330987        -2.055018        -0.771407
 H         1.616661        -2.268168         0.936895
 H         3.537555         1.588560        -1.850453
