19
Iteration:   439charge 0 multiplicity 1
 C        -0.080290         0.316968        -0.290596
 C         1.353813         0.001501         0.023787
 C         2.182655         0.769143         1.167956
 C         3.432670         0.491331         0.281556
 C         3.268959        -0.914716        -0.322726
 O         4.469792        -1.709519        -0.758780
 C         1.896392        -1.433243         0.206191
 C         2.512348         0.270063        -0.899375
 O         2.394172         1.136406        -1.950754
 H        -0.720634         0.598194         0.567441
 H        -0.005783         1.222725        -0.892671
 H        -0.537395        -0.520432        -0.918603
 H         1.799043         1.772897         1.253680
 H         2.206774         0.256601         2.073180
 H         4.312928         1.167270        -0.029463
 H         5.099887        -1.701087        -0.053765
 H         1.444409        -2.310483        -0.438103
 H         1.992107        -1.897990         1.244686
 H         2.516108         0.599049        -2.756646
