19
Iteration:  4521charge 0 multiplicity 1
 C        -0.156743         0.230219        -0.315670
 C         1.316059        -0.011531         0.083557
 C         2.031142         0.688116         1.275611
 C         3.348212         0.642475         0.450641
 C         3.256971        -0.859399        -0.254708
 O         4.356729        -1.534105        -0.875750
 C         1.929851        -1.410654         0.055663
 C         2.587888         0.312476        -0.860813
 O         2.773766         0.982382        -1.975851
 H        -0.744525        -0.560624         0.058013
 H        -0.551207         1.253994        -0.003202
 H        -0.168053         0.199540        -1.399807
 H         1.646813         1.760069         1.180838
 H         2.124651        -0.003848         2.276066
 H         4.320239         1.006176         0.713673
 H         4.103159        -2.545284        -1.017385
 H         1.554020        -2.022893        -0.852084
 H         1.991506        -1.948925         1.032120
 H         2.616853         0.628745        -2.870781
