19
Iteration:  3424charge 0 multiplicity 1
 C        -0.219803         0.303708        -0.144871
 C         1.331171         0.051931         0.005758
 C         2.045730         0.622658         1.284961
 C         3.375738         0.533192         0.534842
 C         3.282393        -0.836519        -0.309270
 O         4.368658        -1.549206        -0.783979
 C         1.879622        -1.421099        -0.032963
 C         2.689408         0.409381        -0.845565
 O         2.735579         0.795180        -2.157633
 H        -0.848986        -0.395784         0.434195
 H        -0.487362         1.366701         0.081683
 H        -0.712152         0.044710        -1.205754
 H         1.695663         1.506719         1.612507
 H         1.832538         0.062667         2.184855
 H         4.366804         0.907050         0.610174
 H         4.512785        -1.270960        -1.634386
 H         1.584221        -1.941882        -0.923383
 H         1.681170        -1.941710         0.906401
 H         2.840987         1.788068        -2.218509
