19
Iteration:  3123
 C        -0.104510         0.154378        -0.376985
 C         1.328605         0.051116         0.070870
 C         2.236866         0.623347         1.223043
 C         3.464393         0.439109         0.431471
 C         3.181959        -0.870287        -0.367754
 O         4.362708        -1.625448        -0.561793
 C         1.844959        -1.429696         0.016221
 C         2.632031         0.430859        -0.865602
 O         2.508248         1.098149        -2.076271
 H        -0.806601         0.077412         0.360877
 H        -0.293351         1.097773        -0.834784
 H        -0.316624        -0.754768        -0.990018
 H         2.032968         1.665351         1.419510
 H         2.147689         0.198738         2.343604
 H         4.447052         0.904580         0.563467
 H         4.534865        -1.511994        -1.608697
 H         1.371403        -2.033724        -0.789174
 H         1.712633        -1.883884         0.963747
 H         2.954824         1.918108        -2.089880
