19
Iteration:  2652charge 0 multiplicity 1
 C        -0.065907         0.192233        -0.296294
 C         1.313559        -0.027584         0.079749
 C         2.152633         0.719489         1.278686
 C         3.389894         0.512201         0.486791
 C         3.215542        -0.832759        -0.325821
 O         4.328649        -1.500402        -0.746153
 C         1.878966        -1.511625        -0.072583
 C         2.635283         0.361402        -0.811369
 O         2.613335         1.027868        -2.036231
 H        -0.740294        -0.350353         0.340463
 H        -0.331655         1.178959        -0.258043
 H        -0.222421        -0.206886        -1.323405
 H         1.707566         1.820213         1.187693
 H         1.911675         0.568661         2.388678
 H         4.391091         0.907438         0.497802
 H         3.928429        -2.282198        -1.352148
 H         1.468428        -1.968369        -1.004513
 H         1.758891        -2.105327         0.808847
 H         3.552320         1.073018        -2.133180
