19
Iteration:  3470
 C        -0.106639         0.221712        -0.320414
 C         1.303471        -0.052397         0.124836
 C         2.075290         0.732342         1.333489
 C         3.399304         0.538184         0.457681
 C         3.135572        -0.881849        -0.297200
 O         4.234033        -1.464264        -0.906430
 C         1.843976        -1.520187         0.109091
 C         2.611204         0.389619        -0.833856
 O         2.898312         0.865416        -2.088618
 H        -0.833343        -0.052193         0.517608
 H        -0.251356         1.292526        -0.629329
 H        -0.620670        -0.448006        -1.070434
 H         1.825232         1.723349         1.472044
 H         2.308428         0.527850         2.387613
 H         4.477043         0.843769         0.608923
 H         4.383194        -1.033276        -1.683007
 H         1.519429        -2.030054        -0.829531
 H         2.038090        -2.132927         0.962250
 H         2.628167         1.781524        -2.002191
