19
Iteration:  4630
 C        -0.098503         0.255184        -0.362263
 C         1.349783        -0.002782         0.004604
 C         2.051471         0.661259         1.264975
 C         3.331600         0.491408         0.519827
 C         3.177059        -0.900028        -0.344265
 O         4.398526        -1.629375        -0.817927
 C         1.894156        -1.526289         0.117975
 C         2.617838         0.491492        -0.801527
 O         2.737656         1.078818        -2.004312
 H        -0.780667         0.461822         0.514293
 H        -0.315938         1.258326        -0.913427
 H        -0.395433        -0.600539        -1.038792
 H         1.614188         1.687175         1.367249
 H         1.898989         0.182411         2.221772
 H         4.314031         0.875234         0.806927
 H         4.689579        -1.237792        -1.659141
 H         1.636443        -2.270839        -0.687276
 H         1.727959        -1.841183         1.166786
 H         2.294584         0.681142        -2.710506
