19
Iteration:   180
 C        -0.245788         0.274880        -0.106359
 C         1.326433         0.076215         0.011841
 C         2.137699         0.719449         1.192131
 C         3.391445         0.564762         0.355365
 C         3.267898        -0.963196        -0.219422
 O         4.341471        -1.504922        -0.904856
 C         1.899340        -1.405807         0.175537
 C         2.618928         0.317532        -0.883078
 O         2.632716         0.888495        -2.161229
 H        -0.609042         0.571244         0.775502
 H        -0.509889         1.023801        -0.845587
 H        -0.751669        -0.722899        -0.448500
 H         1.906251         1.802156         1.324206
 H         2.177140         0.197808         2.110687
 H         4.276950         1.043175         0.681237
 H         5.102782        -2.014790        -0.343212
 H         1.414917        -2.072208        -0.601217
 H         1.772974        -1.950491         1.128760
 H         3.610210         1.009989        -2.352980
