19
Iteration:  4178
 C        -0.033937         0.238562        -0.354594
 C         1.396599        -0.075643         0.005985
 C         2.081061         0.747648         1.230617
 C         3.364664         0.427886         0.456904
 C         3.230196        -0.925055        -0.371721
 O         4.377808        -1.653378        -0.662155
 C         1.905557        -1.457152         0.114284
 C         2.598453         0.367297        -0.884682
 O         2.531790         1.133325        -2.050625
 H        -0.557440         0.071926         0.569239
 H        -0.084422         1.358591        -0.742160
 H        -0.497805        -0.384936        -1.206249
 H         1.881849         1.752111         1.364209
 H         1.774377         0.392771         2.134773
 H         4.437080         0.766517         0.637972
 H         4.440003        -1.645838        -1.730704
 H         1.410731        -2.162070        -0.557298
 H         1.906315        -1.736506         1.166890
 H         2.957831         2.047113        -1.892879
