19
Iteration:  1504charge 0 multiplicity 1
 C        -0.100197         0.311769        -0.236674
 C         1.302201        -0.083687         0.094191
 C         2.005147         0.688831         1.255050
 C         3.328259         0.463891         0.439726
 C         3.250701        -0.889626        -0.330677
 O         4.433373        -1.299062        -0.933850
 C         1.976762        -1.525628         0.176984
 C         2.524826         0.293498        -0.896195
 O         2.664945         0.866820        -2.118017
 H        -0.726182         0.112608         0.501662
 H        -0.063610         1.425484        -0.449469
 H        -0.483753        -0.309270        -1.101243
 H         1.645725         1.764207         1.395650
 H         2.124600         0.209705         2.220850
 H         4.390405         0.941906         0.602269
 H         4.941266        -1.901329        -0.224110
 H         1.429024        -2.098037        -0.632866
 H         2.052482        -2.095939         1.131746
 H         2.400284         1.785011        -1.959937
