19
Iteration:  3943
 C        -0.099602         0.253467        -0.278993
 C         1.309097        -0.011102         0.020500
 C         2.113758         0.609990         1.238678
 C         3.369228         0.475156         0.414367
 C         3.245532        -0.863393        -0.305316
 O         4.398365        -1.506349        -0.723188
 C         1.811616        -1.457037         0.195839
 C         2.528719         0.340542        -0.910987
 O         2.744534         1.018767        -2.142698
 H        -0.952117        -0.387236         0.279346
 H        -0.395047         1.381269        -0.160048
 H        -0.302601         0.057642        -1.374602
 H         1.871668         1.588964         1.473660
 H         2.192326         0.214397         2.223735
 H         4.360457         0.918830         0.599634
 H         4.266280        -1.932727        -1.660662
 H         1.378611        -2.157333        -0.541292
 H         1.716264        -1.929517         1.192194
 H         2.978170         1.903016        -1.970524
