19
Iteration:  4843
 C        -0.080569         0.239394        -0.372751
 C         1.336298         0.053389        -0.026089
 C         2.062843         0.660296         1.316114
 C         3.376947         0.424463         0.576351
 C         3.230200        -0.864823        -0.243429
 O         4.280360        -1.496832        -0.849678
 C         1.823470        -1.440401         0.027752
 C         2.653446         0.410077        -0.764267
 O         2.760204         0.867187        -2.075421
 H        -0.514395         0.190241         0.667033
 H        -0.374517         1.226241        -0.944185
 H        -0.264130        -0.726236        -1.034526
 H         1.850545         1.668931         1.426341
 H         2.067803         0.006857         2.173687
 H         4.340897         0.960748         0.733860
 H         4.411247        -1.007803        -1.778022
 H         1.508686        -2.036497        -0.864732
 H         1.563227        -1.916540         1.079905
 H         2.668021         1.940412        -2.121400
