19
Iteration:  1715charge 0 multiplicity 1
 C        -0.084997         0.415100        -0.233888
 C         1.316947        -0.130165         0.073018
 C         1.963430         0.587512         1.230660
 C         3.266561         0.501030         0.490363
 C         3.244564        -0.907589        -0.310428
 O         4.448741        -1.313950        -0.886318
 C         1.994078        -1.610743         0.060110
 C         2.592644         0.340110        -0.862844
 O         2.715448         0.905574        -2.126188
 H        -0.605951         0.247465         0.700181
 H         0.165139         1.564256        -0.180047
 H        -0.827156         0.137924        -0.999305
 H         1.638007         1.689119         1.230061
 H         1.754290         0.245045         2.202841
 H         4.258104         1.014644         0.846539
 H         4.484928        -2.218880        -0.771542
 H         1.406773        -2.217350        -0.611844
 H         1.923570        -2.026099         1.111819
 H         2.401060         1.779532        -2.008636
