19
Iteration:  4815charge 0 multiplicity 1
 C        -0.045043         0.294093        -0.433379
 C         1.302342        -0.055254         0.136381
 C         2.029123         0.650306         1.280356
 C         3.322136         0.482409         0.550775
 C         3.214822        -0.890796        -0.316901
 O         4.319838        -1.569562        -0.900243
 C         1.903907        -1.464189         0.149541
 C         2.583230         0.458390        -0.802801
 O         2.810061         0.941315        -2.050460
 H        -0.876965         0.142244         0.279995
 H        -0.091818         1.341551        -0.650196
 H        -0.084099        -0.347284        -1.264025
 H         1.699261         1.780616         1.460298
 H         2.046487         0.333885         2.405084
 H         4.308787         0.835115         0.807275
 H         4.443612        -1.505325        -1.926436
 H         1.483654        -1.935121        -0.749817
 H         1.874358        -1.993069         1.087330
 H         2.133748         1.720157        -2.304396
