19
Iteration:  1135
 C        -0.105433         0.237046        -0.226020
 C         1.360931        -0.000300         0.108469
 C         2.097862         0.706521         1.258009
 C         3.383376         0.657673         0.494095
 C         3.192117        -0.865470        -0.360386
 O         4.373861        -1.419889        -0.797373
 C         1.995827        -1.530109         0.134313
 C         2.596958         0.355998        -0.821391
 O         2.564792         0.715473        -2.247204
 H        -0.777938        -0.124226         0.632078
 H        -0.340824         1.258407        -0.468786
 H        -0.294229        -0.386653        -1.048439
 H         1.574323         1.641900         1.324659
 H         2.222146         0.386040         2.297089
 H         4.344616         0.964387         0.685702
 H         4.752303        -0.709063        -1.451593
 H         1.453634        -2.224933        -0.602716
 H         2.103663        -1.971508         1.164585
 H         2.419320         1.717932        -2.172831
