19
Iteration:  4086
 C        -0.165309         0.275088        -0.133478
 C         1.295155         0.025219         0.075384
 C         2.040734         0.675526         1.260971
 C         3.346897         0.493152         0.511982
 C         3.216542        -0.825390        -0.266932
 O         4.371861        -1.423702        -0.807143
 C         1.856732        -1.477822        -0.042598
 C         2.623392         0.421882        -0.842107
 O         2.883506         0.735306        -2.186026
 H        -0.746657        -0.380505         0.628235
 H        -0.630439         1.277764        -0.001581
 H        -0.479038         0.070256        -1.155789
 H         1.801521         1.664101         1.543639
 H         1.840761         0.306858         2.285387
 H         4.263613         0.973160         0.792376
 H         4.133263        -1.563829        -1.746216
 H         1.568455        -1.791691        -1.050917
 H         1.683811        -2.207226         0.793091
 H         2.658563         1.635765        -2.260107
