19
Iteration:  4742charge 0 multiplicity 1
 C        -0.094615         0.263205        -0.188796
 C         1.358837         0.047078         0.071187
 C         2.105725         0.665570         1.254214
 C         3.315896         0.490728         0.397131
 C         3.215287        -0.898333        -0.406839
 O         4.438427        -1.606650        -0.498927
 C         1.839813        -1.471107        -0.148735
 C         2.637428         0.404566        -0.922385
 O         2.595335         1.083692        -2.110846
 H        -0.655430        -0.548775         0.282584
 H        -0.405799         1.236110         0.355782
 H        -0.353575         0.141290        -1.329481
 H         1.840925         1.611932         1.518210
 H         2.018165         0.140629         2.134094
 H         4.321450         0.645000         0.764597
 H         4.193505        -2.106837        -1.330444
 H         1.316051        -1.915264        -1.036645
 H         1.793200        -2.190878         0.745578
 H         3.586016         1.369545        -2.315182
