19
Iteration:    15
 C        -0.018215         0.218190        -0.231129
 C         1.375863        -0.006470         0.139464
 C         2.079239         0.766905         1.272201
 C         3.370788         0.538226         0.347791
 C         3.230904        -0.889244        -0.348040
 O         4.423598        -1.601227        -0.747264
 C         1.940051        -1.477943         0.198168
 C         2.551479         0.411158        -0.933877
 O         2.435361         1.032880        -2.227285
 H        -0.665800        -0.300815         0.404542
 H        -0.244739         1.303323        -0.175674
 H        -0.241284        -0.138122        -1.367271
 H         1.882716         1.919881         1.132838
 H         1.996337         0.338662         2.331906
 H         4.433480         0.837158         0.533831
 H         4.868823        -2.026940         0.091947
 H         1.320054        -2.113791        -0.518091
 H         2.059265        -1.935717         1.181065
 H         3.212235         0.515167        -2.668758
