19
Iteration:  4823charge 0 multiplicity 1
 C        -0.112393         0.267758        -0.444059
 C         1.338147        -0.010362         0.098110
 C         2.065604         0.670146         1.311580
 C         3.376367         0.506245         0.565987
 C         3.215791        -0.862150        -0.344220
 O         4.271200        -1.544605        -0.876491
 C         1.934846        -1.465470         0.147864
 C         2.643094         0.408631        -0.739814
 O         2.794246         0.923487        -2.078040
 H        -0.867543         0.108396         0.369186
 H        -0.163230         1.238628        -0.882142
 H        -0.302180        -0.381775        -1.284027
 H         1.798299         1.741354         1.300382
 H         1.822617        -0.002077         2.179976
 H         4.411376         0.633282         0.906703
 H         4.187206        -1.175403        -1.802428
 H         1.456484        -1.971356        -0.767148
 H         1.655157        -2.151369         1.022447
 H         2.163345         1.745199        -2.212126
