19
Iteration:   236
 C         0.007141         0.361236        -0.378180
 C         1.401522        -0.004868         0.002202
 C         2.182157         0.703366         1.192361
 C         3.476803         0.522321         0.367577
 C         3.253875        -0.943241        -0.333300
 O         4.413351        -1.628906        -0.759285
 C         1.896543        -1.445318         0.226026
 C         2.579944         0.301748        -0.877891
 O         2.223322         1.030564        -2.020603
 H        -0.622995         0.425862         0.443799
 H         0.114983         1.388240        -0.777215
 H        -0.422287        -0.268897        -1.212300
 H         2.079120         1.819173         1.339103
 H         2.065725         0.234562         2.126274
 H         4.428356         1.090844         0.556577
 H         4.894619        -1.932955         0.084874
 H         1.624953        -2.235321        -0.470493
 H         1.869968        -1.825199         1.309349
 H         2.925048         0.960060        -2.614786
