19
Iteration:  4967charge 0 multiplicity 1
 C        -0.044596         0.244762        -0.438772
 C         1.400056         0.022659         0.043702
 C         2.102627         0.724142         1.293498
 C         3.382437         0.572973         0.422126
 C         3.215287        -0.886252        -0.257526
 O         4.342877        -1.689326        -0.718045
 C         1.853995        -1.477214         0.086664
 C         2.622142         0.400099        -0.837846
 O         2.600926         1.027965        -2.059512
 H        -0.553419        -0.584109         0.277223
 H        -0.444672         1.258886        -0.304555
 H        -0.160182         0.000577        -1.507228
 H         1.760797         1.751155         1.604539
 H         2.042826        -0.027612         2.085892
 H         4.441517         0.793503         0.527504
 H         4.389401        -1.656313        -1.739962
 H         1.340136        -2.121484        -0.687426
 H         1.615196        -2.056655         1.055448
 H         2.820807         2.036536        -1.910383
