19
Iteration:  4705
 C        -0.110420         0.291223        -0.249774
 C         1.329304         0.009395        -0.016170
 C         2.040190         0.610473         1.249103
 C         3.303716         0.470346         0.445070
 C         3.279177        -0.872137        -0.293145
 O         4.429138        -1.631823        -0.645167
 C         1.927024        -1.483558         0.018801
 C         2.562015         0.392464        -0.935742
 O         2.668174         1.181716        -2.064775
 H        -0.679475        -0.210024         0.661834
 H        -0.462324         1.369767        -0.258163
 H        -0.503975        -0.073101        -1.236874
 H         1.951071         1.744495         1.447559
 H         1.919972        -0.087555         2.103244
 H         4.325686         0.830395         0.672103
 H         4.178870        -2.175343        -1.375115
 H         1.400574        -2.009892        -0.817728
 H         1.856034        -1.929046         0.995356
 H         3.223711         0.761678        -2.747877
