19
Iteration:  2584charge 0 multiplicity 1
 C        -0.128089         0.237499        -0.289390
 C         1.336293        -0.028188         0.124331
 C         2.160096         0.678732         1.290583
 C         3.347813         0.509858         0.378539
 C         3.177668        -0.915165        -0.333179
 O         4.407165        -1.504011        -0.656742
 C         1.866570        -1.549904        -0.030501
 C         2.546217         0.390992        -0.862614
 O         2.737796         1.106426        -2.047692
 H        -0.836784        -0.371082         0.123393
 H        -0.432205         1.294232        -0.197359
 H        -0.135754         0.019213        -1.368780
 H         1.776007         1.796058         1.301815
 H         2.168178         0.351483         2.411901
 H         4.432640         0.685379         0.568394
 H         4.451647        -1.797463        -1.546426
 H         1.359248        -2.096337        -0.846450
 H         1.842906        -2.115083         0.940039
 H         2.119133         0.745937        -2.740140
