19
Iteration:  4895
 C        -0.150295         0.344491        -0.099620
 C         1.272423        -0.034919        -0.030058
 C         1.996653         0.558801         1.188815
 C         3.322252         0.480565         0.359155
 C         3.211272        -0.862328        -0.325390
 O         4.424978        -1.446663        -0.659548
 C         1.844683        -1.540951         0.035659
 C         2.542392         0.348357        -0.906624
 O         2.903644         0.993266        -2.108509
 H        -0.586125         0.014028         0.781151
 H        -0.051944         1.449852        -0.151689
 H        -0.659015         0.053188        -1.038090
 H         1.706748         1.612638         1.239017
 H         1.900839        -0.007191         2.093264
 H         4.332231         0.874807         0.606031
 H         4.241715        -1.995086        -1.492821
 H         1.417910        -2.164595        -0.714365
 H         1.783275        -2.111670         0.910241
 H         2.927882         2.027487        -1.911114
