19
Iteration:  4712
 C        -0.136285         0.286670        -0.259025
 C         1.342658         0.009508        -0.006670
 C         2.094775         0.597926         1.212336
 C         3.345935         0.453901         0.410083
 C         3.244805        -0.848321        -0.268219
 O         4.412659        -1.637685        -0.602640
 C         1.923343        -1.477335        -0.008229
 C         2.581093         0.420819        -0.909607
 O         2.650930         1.181629        -2.085777
 H        -0.609410        -0.323095         0.483700
 H        -0.313945         1.298118        -0.080928
 H        -0.652679        -0.068130        -1.095973
 H         1.834162         1.661313         1.504028
 H         1.853398        -0.083595         2.164990
 H         4.244452         1.003477         0.596140
 H         4.115479        -2.081274        -1.348793
 H         1.488376        -2.083775        -0.813182
 H         1.719243        -2.127767         0.884800
 H         3.288048         0.823071        -2.626420
