19
Iteration:   706
 C        -0.219686         0.078204        -0.012819
 C         1.333003         0.066041         0.074806
 C         2.151042         0.748657         1.178274
 C         3.403142         0.589147         0.322447
 C         3.294087        -0.803345        -0.240926
 O         4.254211        -1.579656        -0.861182
 C         1.843698        -1.403200         0.167028
 C         2.553067         0.294504        -0.953239
 O         2.816258         1.022239        -2.162233
 H        -0.655591        -0.604326         0.699976
 H        -0.675973         1.110331         0.063258
 H        -0.627612        -0.350965        -0.973501
 H         1.852253         1.804840         1.222358
 H         1.952423         0.164816         2.123867
 H         4.365208         1.158047         0.141799
 H         4.846699        -1.598528        -0.232800
 H         1.501040        -2.126748        -0.704246
 H         1.594318        -1.775219         1.156576
 H         3.157617         0.333588        -2.859575
