19
Iteration:  1255charge 0 multiplicity 1
 C        -0.124037         0.066911        -0.161993
 C         1.339664        -0.099318         0.093340
 C         2.078945         0.771914         1.107650
 C         3.358790         0.542250         0.298990
 C         3.271105        -0.867178        -0.390293
 O         4.450847        -1.529031        -0.659840
 C         2.026703        -1.479378         0.216669
 C         2.522500         0.344968        -0.942832
 O         2.514645         1.127121        -2.148561
 H        -0.700854        -0.582553         0.558531
 H        -0.441122         1.071953        -0.060789
 H        -0.329724        -0.173772        -1.164288
 H         1.752608         1.876846         1.093568
 H         2.274675         0.422612         2.153257
 H         4.201824         1.142475         0.147702
 H         4.040568        -2.542996        -0.464263
 H         1.560168        -2.143181        -0.558944
 H         2.198325        -1.894450         1.227696
 H         3.046123         1.924254        -1.965620
