19
Iteration:  3861
 C        -0.180041         0.293193        -0.233338
 C         1.299364        -0.000437         0.063702
 C         2.060442         0.640438         1.329757
 C         3.333779         0.555288         0.479657
 C         3.222376        -0.848174        -0.348644
 O         4.335765        -1.453555        -0.791618
 C         1.856572        -1.477353         0.007782
 C         2.636955         0.437511        -0.827763
 O         2.867448         0.781938        -2.109158
 H        -0.933928        -0.020960         0.696003
 H        -0.389440         1.309086        -0.507335
 H        -0.565040        -0.367881        -1.043406
 H         1.933212         1.710066         1.524576
 H         2.185721        -0.065335         2.141470
 H         4.372701         0.956504         0.565191
 H         4.252601        -1.614105        -1.781354
 H         1.337753        -2.030843        -0.801868
 H         1.897935        -2.000293         0.979640
 H         2.647822         1.689402        -2.314285
