19
Iteration:   642charge 0 multiplicity 1
 C        -0.079129         0.328974        -0.277561
 C         1.353340        -0.002781         0.017892
 C         2.174176         0.762284         1.151633
 C         3.388078         0.520261         0.282719
 C         3.298857        -0.868400        -0.219611
 O         4.395287        -1.581652        -0.793951
 C         1.937228        -1.531188         0.217424
 C         2.526037         0.239410        -0.939007
 O         2.502935         1.048021        -1.963090
 H        -0.737760         0.300411         0.679033
 H        -0.124865         1.329764        -0.747307
 H        -0.412197        -0.405359        -0.966211
 H         1.870216         1.741497         1.197416
 H         1.985031         0.392800         2.163667
 H         4.345415         1.100823         0.055096
 H         4.909065        -2.042770        -0.265562
 H         1.634735        -2.118469        -0.679214
 H         1.883564        -1.901041         1.269460
 H         1.828662         0.787817        -2.697281
