19
Iteration:  3128charge 0 multiplicity 1
 C        -0.119967         0.149209        -0.393908
 C         1.368815         0.039147         0.035601
 C         2.192210         0.646916         1.229238
 C         3.464458         0.420747         0.435368
 C         3.204069        -0.880066        -0.358245
 O         4.351289        -1.615839        -0.585240
 C         1.836494        -1.475531         0.080240
 C         2.660364         0.448422        -0.863651
 O         2.497105         1.124828        -2.097738
 H        -0.834601         0.131907         0.576655
 H        -0.330327         1.172339        -0.842341
 H        -0.304787        -0.635135        -1.105752
 H         2.098867         1.771346         1.392737
 H         2.173447         0.080224         2.184647
 H         4.454555         0.838955         0.591390
 H         4.551592        -1.596564        -1.470226
 H         1.332904        -2.053866        -0.684091
 H         1.779777        -2.057899         1.076722
 H         2.957782         2.045866        -2.065919
