19
Iteration:  1339charge 0 multiplicity 1
 C        -0.120236         0.200111        -0.219066
 C         1.320256         0.010652         0.113070
 C         2.023487         0.609776         1.342834
 C         3.434680         0.679969         0.489747
 C         3.238707        -0.767627        -0.317998
 O         4.335086        -1.411035        -0.885441
 C         1.979398        -1.460684         0.061866
 C         2.573444         0.436512        -0.795345
 O         2.631008         0.611542        -2.214311
 H        -0.768147        -0.030078         0.593696
 H        -0.222320         1.346667        -0.453584
 H        -0.381371        -0.611081        -1.035345
 H         1.724820         1.675237         1.585985
 H         2.097852         0.023490         2.237097
 H         4.367294         1.039734         0.688985
 H         4.944382        -0.598868        -1.278609
 H         1.601364        -2.050071        -0.797250
 H         1.880168        -2.121453         0.923875
 H         2.634181         1.632053        -2.278135
