19
Iteration:   750
 C        -0.099062         0.312871        -0.079868
 C         1.311508         0.001691         0.112962
 C         2.009370         0.725427         1.247747
 C         3.391219         0.502813         0.453350
 C         3.205670        -0.868444        -0.302989
 O         4.341162        -1.358895        -0.927601
 C         1.963517        -1.465946         0.152346
 C         2.556490         0.385790        -0.911495
 O         2.732834         0.787471        -2.192987
 H        -0.769005        -0.284413         0.541246
 H        -0.348294         1.405497        -0.038359
 H        -0.408033        -0.043809        -1.097312
 H         1.807314         1.806165         1.101360
 H         1.912131         0.340285         2.328489
 H         4.224857         1.168536         0.567556
 H         4.825710        -2.052781        -0.479836
 H         1.477300        -2.196062        -0.630058
 H         2.079819        -2.033352         1.065681
 H         2.686631        -0.060174        -2.804919
