19
Iteration:   517
 C        -0.260757         0.201542         0.002765
 C         1.302269         0.022039         0.043336
 C         2.077134         0.752875         1.163483
 C         3.409364         0.530686         0.367608
 C         3.229862        -0.846988        -0.281420
 O         4.342010        -1.474185        -0.975537
 C         1.846801        -1.399755         0.252766
 C         2.619595         0.359784        -0.903860
 O         2.823793         0.892908        -2.175944
 H        -0.704528        -0.561156         0.579394
 H        -0.524139         1.199990         0.373159
 H        -0.658204         0.150733        -1.095061
 H         2.009560         1.810461         1.202253
 H         2.007424         0.302836         2.129677
 H         4.293832         1.166843         0.444698
 H         4.725795        -2.177176        -0.240982
 H         1.305416        -2.082771        -0.570863
 H         1.817605        -1.942144         1.224423
 H         3.122128         0.029081        -2.676291
