19
Iteration:  1983charge 0 multiplicity 1
 C        -0.092568         0.113089        -0.332144
 C         1.337844        -0.052116         0.062929
 C         2.075683         0.694092         1.378451
 C         3.336662         0.545510         0.423023
 C         3.298559        -0.882580        -0.350318
 O         4.295776        -1.600935        -0.781335
 C         1.948937        -1.433845         0.028452
 C         2.597709         0.465080        -0.860321
 O         2.674442         1.098770        -2.039783
 H        -0.794893        -0.516251         0.412148
 H        -0.442935         1.102949        -0.360341
 H        -0.110624        -0.303843        -1.399232
 H         1.800144         1.708523         1.331287
 H         2.139888         0.110418         2.278828
 H         4.325688         1.030221         0.424750
 H         3.895275        -2.534560        -1.145984
 H         1.673787        -2.034191        -0.838732
 H         1.874814        -1.907199         1.002506
 H         2.818992         2.021956        -2.068216
