19
Iteration:  2937
 C        -0.098139         0.322805        -0.333243
 C         1.270711        -0.067708         0.128601
 C         2.088095         0.644334         1.216305
 C         3.396810         0.449364         0.318922
 C         3.221250        -0.975678        -0.372228
 O         4.508405        -1.471217        -0.711629
 C         1.772864        -1.537203         0.186573
 C         2.612226         0.296736        -0.911357
 O         2.653281         1.114337        -2.045631
 H        -0.805154         0.167173         0.585693
 H        -0.150543         1.412158        -0.598986
 H        -0.417912        -0.556691        -1.073615
 H         1.868499         1.686707         1.125267
 H         2.112242         0.469878         2.240430
 H         4.378267         0.891026         0.374260
 H         4.498572        -1.689052        -1.595983
 H         1.214295        -2.234743        -0.517200
 H         1.768543        -1.978992         1.190714
 H         2.522141         1.976782        -1.719007
