19
Iteration:  3126charge 0 multiplicity 1
 C        -0.117352         0.151442        -0.388860
 C         1.349351         0.046499         0.050713
 C         2.213893         0.635044         1.218082
 C         3.471012         0.428752         0.436136
 C         3.192867        -0.873715        -0.363570
 O         4.356460        -1.619836        -0.575747
 C         1.838173        -1.458415         0.051231
 C         2.651298         0.441195        -0.863157
 O         2.500846         1.114597        -2.088968
 H        -0.805107         0.120503         0.454411
 H        -0.305748         1.106089        -0.804823
 H        -0.300847        -0.691163        -1.043633
 H         2.078920         1.743589         1.409096
 H         2.163695         0.106963         2.314846
 H         4.414301         0.864060         0.572952
 H         4.530356        -1.551682        -1.489159
 H         1.350451        -2.040237        -0.714286
 H         1.745797        -1.985180         1.034648
 H         2.951710         1.988418        -2.083317
