19
Iteration:  3158charge 0 multiplicity 1
 C        -0.051803         0.298103        -0.302386
 C         1.349845        -0.085386         0.064867
 C         1.992171         0.687364         1.165630
 C         3.313112         0.482712         0.409574
 C         3.294700        -0.881767        -0.376378
 O         4.403806        -1.610651        -0.727875
 C         1.930618        -1.476103         0.160175
 C         2.553031         0.306591        -0.903924
 O         2.637695         1.105730        -2.007318
 H        -0.742663         0.046665         0.381858
 H        -0.037396         1.326485        -0.462263
 H        -0.235680        -0.008070        -1.330915
 H         1.816729         1.751174         0.998616
 H         1.985850         0.212193         2.241906
 H         4.140326         1.142183         0.449568
 H         4.217665        -2.216330        -1.585542
 H         1.494306        -2.300620        -0.377638
 H         2.049369        -1.796239         1.195120
 H         2.803791         1.967026        -1.658581
