19
Iteration:  1915
 C        -0.119141         0.379922        -0.178142
 C         1.363393        -0.109156         0.004199
 C         1.967478         0.629461         1.201560
 C         3.311858         0.525867         0.506050
 C         3.292635        -0.887414        -0.267236
 O         4.447958        -1.503539        -0.749860
 C         1.947671        -1.569318        -0.063770
 C         2.671627         0.373200        -0.823263
 O         2.536718         1.000955        -2.035498
 H        -0.825311         0.358324         0.788546
 H        -0.182990         1.426672        -0.402862
 H        -0.514999        -0.234376        -1.001591
 H         1.676991         1.610744         0.977385
 H         1.853859         0.224160         2.146220
 H         4.243222         1.003829         0.677364
 H         4.485867        -1.279667        -1.609578
 H         1.768987        -1.928492        -1.017587
 H         1.849405        -2.223396         0.756225
 H         3.397617         0.997925        -2.594194
