19
Iteration:   174
 C        -0.205948         0.220643        -0.076826
 C         1.299256         0.099875         0.022155
 C         2.119240         0.717883         1.148379
 C         3.342388         0.586914         0.413903
 C         3.259764        -0.954916        -0.202937
 O         4.343185        -1.504162        -0.928736
 C         1.883130        -1.415396         0.178630
 C         2.634124         0.328378        -0.902644
 O         2.681641         0.884311        -2.220873
 H        -0.661303         0.538171         1.027206
 H        -0.468624         1.031975        -0.805828
 H        -0.685427        -0.650701        -0.363174
 H         2.058493         1.822072         1.441756
 H         2.097442         0.164816         2.204418
 H         4.333781         0.923617         0.850642
 H         4.851718        -1.997037        -0.432284
 H         1.477807        -1.992048        -0.617016
 H         1.761375        -1.858791         1.207766
 H         3.584213         0.965469        -2.409920
