19
Iteration:  4955charge 0 multiplicity 1
 C        -0.003770         0.178160        -0.354217
 C         1.375550         0.032967         0.075071
 C         2.136889         0.647961         1.261561
 C         3.389999         0.570495         0.445085
 C         3.217662        -0.894423        -0.357014
 O         4.282304        -1.655375        -0.628259
 C         1.849498        -1.407964        -0.003306
 C         2.634655         0.373947        -0.854601
 O         2.625710         1.032266        -2.070343
 H        -0.865800        -0.533066         0.147646
 H        -0.456508         1.184790        -0.122548
 H        -0.131266        -0.105840        -1.461132
 H         1.899952         1.723249         1.279095
 H         2.066421         0.359968         2.327285
 H         4.340043         1.033894         0.609267
 H         4.228626        -1.790504        -1.540353
 H         1.442028        -1.759154        -0.992636
 H         1.752784        -2.027721         0.955348
 H         2.727546         1.893591        -1.871322
