19
Iteration:  1635
 C        -0.123718         0.115231        -0.248667
 C         1.364595        -0.052815         0.019408
 C         2.099710         0.741214         1.203526
 C         3.341926         0.477185         0.461026
 C         3.265570        -0.819043        -0.373085
 O         4.310908        -1.696537        -0.782076
 C         2.010225        -1.457837         0.103763
 C         2.590792         0.358459        -0.911826
 O         2.586246         1.135909        -2.044833
 H        -0.717249        -0.561763         0.387217
 H        -0.602463         1.195518        -0.035217
 H        -0.293533        -0.042990        -1.421796
 H         1.737010         1.793658         1.148383
 H         2.008699         0.369413         2.232800
 H         4.141436         1.154539         0.618949
 H         5.065475        -1.297208        -0.536008
 H         1.584103        -2.111331        -0.717794
 H         1.844562        -1.819107         1.120374
 H         3.020471         1.960049        -1.924896
