19
Iteration:  4557
 C        -0.104816         0.248154        -0.168787
 C         1.314246        -0.009002         0.020688
 C         2.061194         0.640308         1.203222
 C         3.369001         0.392081         0.473811
 C         3.244078        -0.870765        -0.323344
 O         4.391537        -1.481276        -0.670512
 C         1.867475        -1.445299        -0.001735
 C         2.567720         0.384181        -0.956719
 O         2.712568         1.138464        -2.148634
 H        -0.702396        -0.519845         0.299558
 H        -0.541803         1.090969         0.233272
 H        -0.289431         0.202203        -1.245812
 H         1.894771         1.675963         1.316011
 H         1.854333         0.338218         2.338827
 H         4.401753         0.589119         0.840341
 H         4.574745        -2.401539        -0.254695
 H         1.418275        -2.041147        -0.755456
 H         1.842356        -1.986929         0.971958
 H         2.794009         0.507203        -2.911704
