19
Iteration:   682
 C        -0.158396         0.084807        -0.084751
 C         1.358098         0.070000         0.114781
 C         2.116698         0.820584         1.191591
 C         3.349902         0.554853         0.312475
 C         3.201898        -0.912077        -0.422358
 O         4.273951        -1.654286        -0.790126
 C         1.964192        -1.457979         0.155713
 C         2.585157         0.404238        -0.904525
 O         2.734770         1.097397        -2.158917
 H        -0.606930        -0.369449         0.733046
 H        -0.588408         1.110235        -0.258984
 H        -0.514640        -0.589858        -0.978269
 H         2.012202         1.990791         1.134236
 H         2.018426         0.369006         2.221952
 H         4.401141         0.872521         0.571494
 H         4.812502        -1.625212         0.148295
 H         1.333613        -2.243001        -0.423234
 H         2.061866        -1.761615         1.185397
 H         2.655376         0.420586        -2.819503
