19
Iteration:  3224charge 0 multiplicity 1
 C        -0.147680         0.204468        -0.160157
 C         1.318039         0.111220        -0.011857
 C         2.102297         0.619858         1.347278
 C         3.368878         0.479668         0.491737
 C         3.183518        -0.820304        -0.311174
 O         4.357679        -1.501184        -0.681523
 C         1.862295        -1.386518        -0.076186
 C         2.632672         0.511556        -0.868054
 O         2.753766         0.758351        -2.192771
 H        -0.553765        -0.500609         0.498059
 H        -0.696067         1.107345        -0.000629
 H        -0.358020        -0.176503        -1.209835
 H         1.921432         1.628028         1.584807
 H         1.999606        -0.228157         2.107740
 H         4.368137         0.762577         0.857076
 H         4.506013        -1.138475        -1.601471
 H         1.408106        -1.961135        -0.854138
 H         1.726704        -1.910128         0.869390
 H         2.794565         1.689381        -2.502941
