19
Iteration:   481
 C        -0.055215         0.204767        -0.176565
 C         1.326898        -0.066687         0.197924
 C         2.156529         0.787166         1.170438
 C         3.390870         0.553796         0.346170
 C         3.193335        -0.862203        -0.346268
 O         4.224706        -1.568279        -0.827089
 C         1.911544        -1.519349         0.184878
 C         2.592702         0.430196        -0.886760
 O         2.726365         0.978543        -2.179388
 H        -0.728750        -0.273159         0.627668
 H        -0.271079         1.246785        -0.133735
 H        -0.352102        -0.224910        -1.088281
 H         1.844738         1.904346         1.301946
 H         2.195592         0.384270         2.188261
 H         4.357178         1.140809         0.347019
 H         4.984301        -1.485554        -0.031341
 H         1.517854        -2.050605        -0.630460
 H         1.767824        -2.092143         1.124304
 H         2.003623         0.583351        -2.791328
