19
Iteration:  4704
 C        -0.112741         0.292349        -0.249024
 C         1.328367         0.010294        -0.019472
 C         2.031968         0.612469         1.249294
 C         3.303065         0.473642         0.449847
 C         3.283261        -0.879272        -0.303854
 O         4.429008        -1.629058        -0.652449
 C         1.922889        -1.482030         0.025444
 C         2.564160         0.387148        -0.935546
 O         2.672441         1.180736        -2.063820
 H        -0.696611        -0.179744         0.666439
 H        -0.451990         1.341023        -0.276454
 H        -0.448028        -0.074323        -1.222293
 H         1.936237         1.769560         1.448231
 H         1.932598        -0.101341         2.160937
 H         4.324946         0.804892         0.676748
 H         4.201110        -2.175259        -1.351909
 H         1.409680        -2.007218        -0.819937
 H         1.876079        -1.906636         1.003416
 H         3.180058         0.765052        -2.723076
