19
Iteration:   971charge 0 multiplicity 1
 C        -0.100321         0.345134        -0.311681
 C         1.318332        -0.049872         0.076519
 C         2.122914         0.698090         1.248914
 C         3.379707         0.568594         0.414152
 C         3.288758        -0.882529        -0.305282
 O         4.364722        -1.406721        -0.949494
 C         1.910899        -1.458520         0.211520
 C         2.591859         0.281748        -0.788484
 O         2.599701         0.787568        -2.126318
 H        -0.754075         0.186702         0.629693
 H        -0.185816         1.402608        -0.513447
 H        -0.595505        -0.170445        -1.097417
 H         1.868932         1.654565         1.623806
 H         2.186961         0.037141         2.205984
 H         4.388367         1.157428         0.533006
 H         5.199712        -1.519485        -0.411602
 H         1.407728        -2.131473        -0.484819
 H         1.959913        -1.868879         1.180067
 H         1.684815         1.150346        -2.316031
