19
Iteration:  2622
 C        -0.113462         0.305823        -0.308370
 C         1.314605        -0.006752         0.021100
 C         1.993131         0.647983         1.255243
 C         3.293021         0.477984         0.483830
 C         3.293533        -0.935479        -0.296190
 O         4.432048        -1.563539        -0.847039
 C         1.953859        -1.481838         0.193722
 C         2.634230         0.332439        -0.937646
 O         2.637070         1.152657        -2.020784
 H        -0.777267        -0.553532         0.199929
 H        -0.375709         1.349421        -0.015874
 H        -0.347231         0.315914        -1.382773
 H         1.752654         1.725964         1.272787
 H         1.803713         0.209425         2.222805
 H         4.327592         0.890800         0.635936
 H         3.963634        -1.995060        -1.467355
 H         1.536063        -2.301929        -0.474120
 H         1.930031        -1.836953         1.226201
 H         3.392450         0.724713        -2.573382
