19
Iteration:  3497charge 0 multiplicity 1
 C        -0.102204         0.298165        -0.269056
 C         1.306313         0.002878         0.081610
 C         1.986254         0.677295         1.218639
 C         3.379527         0.389369         0.445165
 C         3.212479        -0.920832        -0.342402
 O         4.402539        -1.475720        -0.894559
 C         1.863177        -1.434371         0.198273
 C         2.561895         0.282503        -0.862688
 O         2.782315         0.967441        -2.041204
 H        -0.842331         0.136679         0.505914
 H        -0.241859         1.304983        -0.615868
 H        -0.371942        -0.323927        -1.054308
 H         1.855365         1.835470         1.384788
 H         1.900078         0.373403         2.267245
 H         4.263850         0.973564         0.410282
 H         4.295568        -1.485083        -1.797327
 H         1.428931        -2.099703        -0.550146
 H         1.940610        -1.926370         1.210610
 H         3.064699         1.823793        -1.728003
