19
Iteration:  3570
 C        -0.143919         0.296757        -0.238415
 C         1.385536        -0.011039         0.034562
 C         2.218862         0.580585         1.198227
 C         3.458258         0.470251         0.329051
 C         3.203351        -0.909813        -0.352534
 O         4.431450        -1.619021        -0.449514
 C         1.835695        -1.501152        -0.047061
 C         2.614810         0.444411        -0.928267
 O         2.535986         1.139988        -2.118818
 H        -0.892000        -0.287727         0.480337
 H        -0.569389         1.333689         0.014811
 H        -0.535010         0.005499        -1.339693
 H         1.925224         1.534799         1.468252
 H         2.059664         0.006367         2.099013
 H         4.444710         0.863136         0.428511
 H         4.433757        -2.177362        -1.211469
 H         1.294201        -1.997671        -0.893398
 H         1.689658        -2.104723         0.832949
 H         2.542135         2.078932        -2.030541
