19
Iteration:  3406
 C        -0.079987         0.336122        -0.167486
 C         1.296561        -0.045359         0.113936
 C         2.130495         0.634539         1.217571
 C         3.303726         0.459307         0.400445
 C         3.164885        -0.851110        -0.322750
 O         4.397917        -1.424126        -0.659711
 C         1.853797        -1.539172        -0.017520
 C         2.539657         0.375875        -0.887792
 O         2.796457         0.898653        -2.175656
 H        -0.720045        -0.371999         0.428315
 H        -0.257406         1.302979         0.292925
 H        -0.276090         0.258714        -1.162408
 H         1.781276         1.815831         1.335008
 H         2.076658         0.156057         2.289634
 H         4.341369         0.771770         0.670663
 H         4.340291        -1.589423        -1.548182
 H         1.393417        -1.956118        -0.981231
 H         1.700729        -2.298686         0.781076
 H         2.741491         1.900575        -2.079722
