19
Iteration:  4905
 C        -0.125874         0.344581        -0.085995
 C         1.286013        -0.072959        -0.025845
 C         2.004610         0.579975         1.097200
 C         3.320784         0.435953         0.428197
 C         3.232090        -0.891763        -0.340860
 O         4.442333        -1.462712        -0.637551
 C         1.821911        -1.430893         0.028542
 C         2.607760         0.339347        -0.955258
 O         2.860524         1.015411        -2.094606
 H        -0.717004        -0.116425         0.598409
 H        -0.347233         1.387894         0.046355
 H        -0.599326        -0.022931        -0.953378
 H         1.664469         1.512780         1.581757
 H         1.862252        -0.053854         1.996080
 H         4.345503         0.854106         0.372441
 H         4.175169        -2.187816        -1.351130
 H         1.472553        -2.097728        -0.734222
 H         1.644635        -1.813568         1.001793
 H         2.635570         2.072366        -1.901244
