19
Iteration:  1620charge 0 multiplicity 1
 C        -0.182840         0.183894        -0.209184
 C         1.303691        -0.055670         0.033385
 C         1.983242         0.721711         1.148397
 C         3.367841         0.544410         0.337773
 C         3.302787        -0.925476        -0.329897
 O         4.399194        -1.623978        -0.847472
 C         1.951946        -1.491560         0.169047
 C         2.567759         0.344874        -0.912922
 O         2.662074         1.162996        -2.029240
 H        -0.876268        -0.655096         0.295377
 H        -0.373904         1.145786         0.150859
 H        -0.506646         0.035890        -1.220078
 H         1.788152         1.775043         1.125087
 H         1.862338         0.289125         2.218426
 H         4.477261         0.933169         0.328308
 H         5.104529        -1.758959        -0.044716
 H         1.554268        -2.269738        -0.482553
 H         2.168995        -1.926877         1.158425
 H         3.019443         1.969874        -1.657533
