19
Iteration:  1788
 C        -0.113370         0.063114        -0.225977
 C         1.363281         0.014648         0.034301
 C         2.051615         0.643775         1.247931
 C         3.366206         0.517685         0.454643
 C         3.233919        -0.823819        -0.387375
 O         4.266047        -1.666102        -0.740941
 C         1.911972        -1.389016         0.099969
 C         2.627016         0.432461        -0.933693
 O         2.766543         1.104849        -2.088010
 H        -0.643292        -0.536470         0.486276
 H        -0.494178         1.103613        -0.290530
 H        -0.363843        -0.307280        -1.279460
 H         1.712650         1.647377         1.534135
 H         2.012760         0.189252         2.280513
 H         4.284816         0.871905         0.617334
 H         4.968490        -1.325317        -1.171616
 H         1.289130        -1.968240        -0.649663
 H         1.880006        -2.079129         0.970780
 H         2.284584         1.905628        -2.018215
