19
Iteration:  2984
 C        -0.155684         0.200320        -0.245000
 C         1.388827        -0.000024         0.038714
 C         2.007554         0.667171         1.200822
 C         3.390569         0.565092         0.563898
 C         3.272103        -0.858594        -0.327468
 O         4.334849        -1.694799        -0.794390
 C         1.925759        -1.426635         0.118679
 C         2.683192         0.431197        -0.842989
 O         2.615190         0.994375        -2.171758
 H        -1.026482        -0.336451         0.415660
 H        -0.303572         1.269175        -0.146643
 H        -0.210618        -0.190921        -1.303670
 H         1.708239         1.737401         1.396305
 H         1.995045         0.109622         2.109207
 H         4.337733         1.109927         0.912575
 H         4.566589        -1.319282        -1.626885
 H         1.399296        -2.032709        -0.642572
 H         1.803355        -1.906839         1.127630
 H         3.117744         1.844434        -2.168348
