19
Iteration:  2783charge 0 multiplicity 1
 C        -0.038025         0.119592        -0.353435
 C         1.342989        -0.003137         0.116148
 C         2.106825         0.665196         1.418196
 C         3.395925         0.546208         0.473598
 C         3.198818        -0.780144        -0.323953
 O         4.269136        -1.565961        -0.789819
 C         1.884864        -1.425644         0.075076
 C         2.597494         0.443596        -0.874023
 O         2.710671         0.944393        -2.159762
 H        -0.696498        -0.475107         0.265787
 H        -0.359598         1.175815        -0.420147
 H        -0.043150        -0.120922        -1.480263
 H         1.716407         1.645989         1.761393
 H         2.080435        -0.126705         2.145954
 H         4.441167         0.913755         0.732031
 H         4.000121        -1.715239        -1.661899
 H         1.400759        -1.994073        -0.795087
 H         1.812351        -2.061926         0.969844
 H         2.841988         1.944287        -2.004656
