19
Iteration:  3022
 C        -0.121372         0.153998        -0.203387
 C         1.292601         0.011239         0.128269
 C         2.144760         0.691402         1.246425
 C         3.396746         0.496444         0.473727
 C         3.187359        -0.821956        -0.276373
 O         4.290678        -1.465103        -0.752103
 C         1.846801        -1.461827        -0.011312
 C         2.559106         0.439510        -0.853016
 O         2.825318         0.828299        -2.157300
 H        -0.781234        -0.463019         0.293617
 H        -0.461705         1.216577        -0.135651
 H        -0.273198         0.032460        -1.260815
 H         1.840409         1.741818         1.476423
 H         2.101659         0.196823         2.393890
 H         4.360005         0.979553         0.602210
 H         4.330189        -1.425426        -1.793137
 H         1.398316        -1.806869        -0.963898
 H         1.728065        -2.210680         0.771941
 H         2.969041         1.844000        -2.184390
