19
Iteration:  2148charge 0 multiplicity 1
 C        -0.112524         0.302940        -0.310027
 C         1.308973        -0.088838         0.025634
 C         2.094237         0.605114         1.302729
 C         3.407048         0.452809         0.427720
 C         3.153969        -0.857931        -0.327211
 O         4.330857        -1.496629        -0.921369
 C         1.818519        -1.549050         0.158420
 C         2.538055         0.351953        -0.868812
 O         2.761699         1.148128        -2.011372
 H        -0.796300         0.086041         0.635122
 H        -0.324992         1.346701        -0.507644
 H        -0.478773        -0.428592        -1.106436
 H         1.844197         1.659826         1.356074
 H         1.965872        -0.048704         2.216769
 H         4.345784         0.938576         0.572540
 H         5.153388        -0.955605        -0.543356
 H         1.542972        -2.322591        -0.592367
 H         1.932390        -2.003350         1.166239
 H         3.563555         0.733846        -2.483780
