19
Iteration:   300charge 0 multiplicity 1
 C        -0.202829         0.202518        -0.072460
 C         1.309512         0.072702         0.071219
 C         2.149135         0.793767         1.188279
 C         3.459612         0.503648         0.341002
 C         3.235891        -0.871282        -0.300907
 O         4.290254        -1.515889        -0.909213
 C         1.896303        -1.383071         0.183642
 C         2.603085         0.325346        -0.900854
 O         2.654204         0.855304        -2.137397
 H        -0.774128        -0.579506         0.288759
 H        -0.578303         1.129336         0.405887
 H        -0.459705         0.324909        -1.215433
 H         1.894104         1.818091         1.199012
 H         1.863478         0.315599         2.115598
 H         4.452280         0.959972         0.576153
 H         4.902924        -1.877699        -0.136703
 H         1.543513        -2.111025        -0.603929
 H         1.778057        -1.879339         1.106721
 H         3.587832         0.775878        -2.424521
