19
Iteration:  2308
 C        -0.129895         0.185409        -0.281683
 C         1.335664         0.041976         0.012351
 C         2.051737         0.656122         1.271339
 C         3.298855         0.348283         0.597657
 C         3.197958        -0.872035        -0.316435
 O         4.326382        -1.456880        -0.873696
 C         1.909483        -1.478565         0.055240
 C         2.665407         0.425065        -0.828143
 O         2.750459         0.956105        -2.119990
 H        -0.733412         0.275311         0.643656
 H        -0.335579         1.200838        -0.940965
 H        -0.487255        -0.705685        -0.831719
 H         1.960878         1.750007         1.414272
 H         1.946829         0.040836         2.145647
 H         4.321742         0.641029         0.921532
 H         4.986426        -0.679512        -1.252369
 H         1.548877        -2.111901        -0.713030
 H         1.791528        -1.950744         1.056754
 H         2.556468         1.899460        -1.977119
