19
Iteration:  1038
 C        -0.211319         0.141688        -0.183002
 C         1.354851        -0.021101         0.043353
 C         2.172863         0.776837         1.109760
 C         3.382116         0.532677         0.281352
 C         3.269512        -0.898257        -0.265978
 O         4.449444        -1.569854        -0.709869
 C         1.975561        -1.442380         0.137872
 C         2.557464         0.353849        -0.943503
 O         2.474338         1.097919        -2.085631
 H        -0.672515        -0.364203         0.802739
 H        -0.438060         1.192290        -0.130176
 H        -0.632514        -0.363447        -1.014750
 H         1.784286         1.741218         1.222357
 H         2.243368         0.319382         2.179630
 H         4.332592         1.055054         0.497913
 H         4.481153        -2.647345        -0.501782
 H         1.523095        -2.151480        -0.526064
 H         1.980775        -1.859574         1.131537
 H         3.336239         1.346772        -2.402727
