19
Iteration:  1148
 C        -0.069749         0.293853        -0.240988
 C         1.359616        -0.080626         0.118717
 C         2.057082         0.745979         1.276210
 C         3.296600         0.621924         0.406278
 C         3.283593        -0.834146        -0.323515
 O         4.409038        -1.416784        -0.857839
 C         2.006158        -1.539190         0.197207
 C         2.563077         0.335260        -0.861599
 O         2.511614         0.719481        -2.152396
 H        -0.890948         0.110411         0.587792
 H        -0.100921         1.352104        -0.480245
 H        -0.459781        -0.231913        -1.086895
 H         1.854952         1.734293         1.386985
 H         1.904860         0.155069         2.208302
 H         4.261109         1.029752         0.613035
 H         4.912660        -0.652893        -1.358557
 H         1.593415        -2.162209        -0.616360
 H         1.957574        -2.164333         1.122737
 H         3.010864         1.487218        -2.386072
