19
Iteration:  3561
 C        -0.132118         0.292100        -0.227848
 C         1.323081         0.041727         0.013821
 C         2.242881         0.649865         1.268169
 C         3.401786         0.463808         0.318941
 C         3.265436        -0.901887        -0.368604
 O         4.416415        -1.634518        -0.452390
 C         1.830372        -1.519689        -0.096986
 C         2.567825         0.417597        -0.931135
 O         2.534241         1.117592        -2.092189
 H        -0.707982        -0.486424         0.436141
 H        -0.294542         1.387018        -0.193037
 H        -0.368473        -0.049946        -1.239874
 H         1.909977         1.632846         1.639520
 H         2.242784        -0.035150         2.129496
 H         4.367695         0.890539         0.325237
 H         4.365763        -2.246409        -1.162245
 H         1.572497        -2.015748        -1.049317
 H         1.751656        -2.131870         0.792688
 H         2.693751         2.035510        -1.978000
