19
Iteration:  1269charge 0 multiplicity 1
 C        -0.083757         0.116805        -0.133236
 C         1.359662        -0.063572         0.105043
 C         2.016286         0.776914         1.183683
 C         3.296603         0.569339         0.298413
 C         3.252329        -0.876518        -0.406149
 O         4.495385        -1.524438        -0.749195
 C         2.023009        -1.467982         0.235413
 C         2.507872         0.317448        -1.012086
 O         2.575341         1.060462        -2.158352
 H        -0.804330        -0.491662         0.455679
 H        -0.328823         1.119210         0.127676
 H        -0.367621        -0.136937        -1.117412
 H         1.661024         1.746982         1.074507
 H         1.675823         0.397753         2.208569
 H         4.432291         0.859551         0.537279
 H         4.565180        -2.346761        -0.501793
 H         1.474253        -2.277726        -0.281538
 H         2.093528        -1.864174         1.322251
 H         2.742302         1.980699        -1.875030
