19
Iteration:  4274
 C        -0.153473         0.302937        -0.142490
 C         1.262945        -0.007104         0.049743
 C         2.013718         0.634023         1.218616
 C         3.360754         0.502087         0.442469
 C         3.217984        -0.887283        -0.336201
 O         4.430326        -1.494375        -0.789438
 C         1.824938        -1.465455         0.046254
 C         2.570281         0.425542        -0.841123
 O         2.854850         0.845244        -2.117391
 H        -0.674251        -0.283995         0.578387
 H        -0.368191         1.288658        -0.112689
 H        -0.362572        -0.034582        -1.126602
 H         1.760068         1.674437         1.388384
 H         1.950341         0.367637         2.281643
 H         4.392290         0.927425         0.553732
 H         4.518884        -1.356495        -1.692334
 H         1.374350        -2.043159        -0.760042
 H         1.718567        -1.985821         1.019654
 H         2.705314         1.795207        -2.171640
