19
Iteration:  3105charge 0 multiplicity 1
 C        -0.082722         0.213232        -0.309612
 C         1.371927         0.022006         0.098627
 C         2.124389         0.699264         1.342548
 C         3.339684         0.524200         0.359077
 C         3.262748        -0.862207        -0.352763
 O         4.388393        -1.633739        -0.615058
 C         1.883100        -1.436916        -0.062239
 C         2.531528         0.396807        -0.843850
 O         2.592643         1.003610        -2.080412
 H        -0.797653         0.267414         0.609733
 H        -0.240280         1.174393        -0.851404
 H        -0.323790        -0.641015        -0.937911
 H         1.848045         1.786086         1.501428
 H         2.197736         0.089272         2.273568
 H         4.356714         0.784089         0.418109
 H         4.586600        -1.800954        -1.666733
 H         1.433459        -1.715114        -1.010153
 H         1.715624        -2.300365         0.663420
 H         3.091994         1.788557        -1.948038
