19
Iteration:    86
 C        -0.074304         0.296809        -0.271209
 C         1.379695        -0.007928         0.128370
 C         2.115155         0.804528         1.198666
 C         3.409073         0.539810         0.372174
 C         3.185671        -0.933984        -0.402439
 O         4.337129        -1.576962        -0.764798
 C         1.998390        -1.483143         0.227732
 C         2.563208         0.365201        -0.893848
 O         2.577066         0.916011        -2.172320
 H        -0.801872        -0.563403         0.136469
 H        -0.381878         1.227975         0.246797
 H        -0.211864         0.436420        -1.280659
 H         1.758664         1.800453         1.037055
 H         1.988718         0.441046         2.232089
 H         4.483876         0.558562         0.470099
 H         5.030340        -1.442274         0.093616
 H         1.474709        -2.175395        -0.379020
 H         2.130126        -1.882302         1.280523
 H         1.716060         1.223736        -2.470327
