19
Iteration:  4613charge 0 multiplicity 1
 C        -0.087689         0.267730        -0.294016
 C         1.323103        -0.040287         0.029326
 C         1.972127         0.634090         1.276358
 C         3.347431         0.468749         0.501319
 C         3.269058        -0.849361        -0.335581
 O         4.270617        -1.615464        -0.726691
 C         1.955563        -1.473199         0.055620
 C         2.653823         0.370719        -0.879583
 O         2.711748         1.148162        -2.089283
 H        -0.687813         0.197488         0.635800
 H        -0.147824         1.243259        -0.663595
 H        -0.574095        -0.321581        -1.059607
 H         1.814415         1.688479         1.263099
 H         1.913270        -0.003369         2.241429
 H         4.365084         0.842870         0.744189
 H         4.959608        -1.130308        -1.132641
 H         1.442015        -2.024301        -0.712306
 H         2.118788        -2.064735         0.972899
 H         2.610963         0.540355        -2.774101
