19
Iteration:  4588
 C        -0.120896         0.308162        -0.211265
 C         1.289603        -0.052508         0.010690
 C         2.076705         0.621156         1.229480
 C         3.356202         0.584595         0.361674
 C         3.274636        -0.893551        -0.316014
 O         4.384763        -1.637489        -0.691398
 C         1.852835        -1.523304        -0.042670
 C         2.542070         0.373567        -0.859662
 O         2.708676         1.160454        -2.047094
 H        -0.643468        -0.151442         0.557019
 H        -0.546846         1.326011        -0.131711
 H        -0.440952        -0.118987        -1.180641
 H         1.780971         1.662342         1.224380
 H         2.117444         0.001471         2.224286
 H         4.357267         1.039226         0.477192
 H         5.095642        -1.460033        -0.121256
 H         1.428026        -2.050549        -0.919888
 H         1.791331        -2.046261         0.951937
 H         3.045415         0.448088        -2.636723
