19
Iteration:  2123
 C        -0.091571         0.220348        -0.267649
 C         1.344485        -0.013819         0.138724
 C         2.048601         0.687434         1.339325
 C         3.368263         0.465110         0.511669
 C         3.199727        -0.849754        -0.317547
 O         4.311734        -1.433300        -0.977520
 C         1.840423        -1.466459        -0.039862
 C         2.612051         0.376644        -0.819928
 O         2.711198         0.976087        -2.029233
 H        -0.801018         0.160852         0.614352
 H        -0.346918         1.083362        -0.801970
 H        -0.326284        -0.664778        -0.871801
 H         1.837837         1.779363         1.190589
 H         1.915232         0.258035         2.345713
 H         4.487391         0.746007         0.731173
 H         4.796816        -1.946584        -0.348934
 H         1.457911        -1.759973        -1.018562
 H         1.790919        -2.268299         0.771192
 H         3.686527         0.930711        -2.347670
