19
Iteration:  4394
 C        -0.159636         0.324120        -0.265060
 C         1.356895         0.009144         0.034086
 C         2.093524         0.572257         1.207002
 C         3.395354         0.441027         0.380626
 C         3.224636        -0.888699        -0.326382
 O         4.504511        -1.506961        -0.612432
 C         1.848946        -1.500263         0.050641
 C         2.607057         0.373301        -0.886821
 O         2.554223         1.069719        -2.147724
 H        -0.831092         0.386059         0.733625
 H        -0.196514         1.321433        -0.673898
 H        -0.560170        -0.309572        -1.089326
 H         1.910323         1.600512         1.605511
 H         2.048337        -0.074845         2.065499
 H         4.408122         0.774418         0.536608
 H         4.350622        -2.479210        -0.997179
 H         1.377835        -2.074888        -0.725852
 H         1.839528        -2.050423         1.017971
 H         3.049282         1.964184        -1.944962
