19
Iteration:  2364
 C        -0.126392         0.313254        -0.217533
 C         1.295179        -0.050578         0.008892
 C         2.007598         0.547108         1.212595
 C         3.336080         0.496557         0.468147
 C         3.306795        -0.854913        -0.305788
 O         4.429104        -1.514492        -0.730880
 C         1.936691        -1.516296        -0.020869
 C         2.587721         0.375344        -0.832859
 O         2.756133         1.085673        -2.070247
 H        -0.729862         0.089673         0.727416
 H        -0.163694         1.514449        -0.327359
 H        -0.614823        -0.167400        -1.107043
 H         1.702928         1.620598         1.273907
 H         1.783976         0.055162         2.148049
 H         4.287232         0.901413         0.549120
 H         4.025794        -2.293277        -1.325563
 H         1.679102        -2.074165        -0.888218
 H         1.767024        -2.170658         0.859911
 H         1.925906         1.691384        -2.143866
