19
Iteration:  3908
 C        -0.166526         0.312055        -0.108950
 C         1.325559        -0.023145         0.005486
 C         2.062769         0.696540         1.249351
 C         3.354450         0.507697         0.487907
 C         3.160036        -0.824051        -0.363401
 O         4.375216        -1.452771        -0.676217
 C         1.865557        -1.505463        -0.063685
 C         2.575997         0.399209        -0.877513
 O         2.820453         0.783996        -2.149449
 H        -0.828111        -0.399743         0.754953
 H        -0.247491         1.391415         0.209409
 H        -0.588389         0.203859        -1.162530
 H         1.818335         1.650115         1.155987
 H         2.165225         0.226622         2.178237
 H         4.335086         0.714147         0.878231
 H         4.579269        -1.382448        -1.745087
 H         1.665495        -2.016200        -1.040574
 H         1.780640        -2.138314         0.826128
 H         2.793938         1.719409        -2.096795
