19
Iteration:  3015
 C        -0.116064         0.168729        -0.202354
 C         1.348328         0.074447         0.060631
 C         2.100543         0.668275         1.320790
 C         3.397239         0.499228         0.497350
 C         3.203688        -0.800936        -0.286216
 O         4.251153        -1.516011        -0.740166
 C         1.897912        -1.449899        -0.036899
 C         2.584736         0.437097        -0.834113
 O         2.772673         0.826261        -2.162716
 H        -0.650027        -0.635313         0.381862
 H        -0.617053         1.127335        -0.110241
 H        -0.193298        -0.093579        -1.348293
 H         1.902938         1.720538         1.343767
 H         2.107765         0.132280         2.221524
 H         4.321334         1.159644         0.500888
 H         4.286734        -1.308358        -1.784586
 H         1.451372        -1.870297        -0.971905
 H         1.671726        -2.089877         0.831828
 H         3.077767         1.753126        -2.145166
