19
Iteration:     1charge 0 multiplicity 1
 C        -0.115983         0.209462        -0.186414
 C         1.347666        -0.018391         0.080272
 C         2.110973         0.763214         1.194275
 C         3.361912         0.558483         0.348713
 C         3.245234        -0.858416        -0.303847
 O         4.344238        -1.511823        -0.821393
 C         1.936061        -1.463556         0.188569
 C         2.563270         0.332681        -0.909505
 O         2.641572         0.968129        -2.119706
 H        -0.726268        -0.119562         0.663468
 H        -0.325836         1.270743        -0.357206
 H        -0.454781        -0.343744        -1.069592
 H         1.812396         1.815695         1.229633
 H         2.080179         0.339367         2.205130
 H         4.337665         1.022305         0.424078
 H         4.919291        -1.773522        -0.093814
 H         1.502629        -2.136725        -0.558027
 H         1.905567        -1.937083         1.177583
 H         2.521614         0.315022        -2.818448
