19
Iteration:   489
 C        -0.122747         0.211969        -0.122928
 C         1.363226         0.006401         0.135335
 C         2.145328         0.779791         1.236116
 C         3.366619         0.619874         0.299913
 C         3.192392        -0.842353        -0.301666
 O         4.249830        -1.559391        -0.872056
 C         1.916944        -1.508455         0.172381
 C         2.535106         0.347194        -0.895891
 O         2.792266         0.937008        -2.147159
 H        -0.718218        -0.428079         0.597751
 H        -0.453413         1.281936        -0.040550
 H        -0.283040        -0.151143        -1.118157
 H         1.906147         1.900064         1.153275
 H         2.162629         0.297851         2.296311
 H         4.307595         1.089663         0.352109
 H         4.948698        -1.637901        -0.084336
 H         1.392980        -2.015967        -0.609240
 H         1.899160        -2.241289         0.986116
 H         2.139266         0.522729        -2.815542
