19
Iteration:  3848charge 0 multiplicity 1
 C        -0.127037         0.257794        -0.306427
 C         1.309489        -0.010581         0.135028
 C         2.144938         0.612663         1.269386
 C         3.408373         0.465555         0.404934
 C         3.125301        -0.815933        -0.306906
 O         4.323390        -1.438131        -0.783332
 C         1.889183        -1.504430         0.103887
 C         2.495518         0.432682        -0.817714
 O         2.857014         0.868785        -2.133770
 H        -0.845138         0.147476         0.611023
 H        -0.170197         1.305766        -0.638389
 H        -0.389368        -0.398181        -1.145505
 H         1.598109         1.682323         1.393080
 H         1.928189         0.295018         2.348432
 H         4.411003         0.812210         0.595965
 H         4.205693        -1.608350        -1.699622
 H         1.468611        -2.035467        -0.762853
 H         1.793297        -2.206195         0.954856
 H         2.906740         1.886603        -2.070704
