19
Iteration:  2807
 C        -0.176880         0.243848        -0.303744
 C         1.269231        -0.081576         0.050046
 C         2.133174         0.706518         1.220862
 C         3.344093         0.557143         0.410032
 C         3.272836        -0.857624        -0.240591
 O         4.350702        -1.567002        -0.835926
 C         1.914324        -1.490507         0.072907
 C         2.573559         0.379408        -0.818734
 O         2.742006         0.936862        -1.982724
 H        -0.871889        -0.434420         0.209619
 H        -0.405109         1.220322        -0.042684
 H        -0.320447         0.278644        -1.369442
 H         1.815859         1.816852         1.159768
 H         2.144179         0.231140         2.244887
 H         4.205561         1.161798         0.487857
 H         4.271372        -1.350232        -1.886961
 H         1.458969        -2.062645        -0.787332
 H         1.823965        -2.077970         0.983902
 H         3.168743         1.830832        -1.886840
