19
Iteration:   281charge 0 multiplicity 1
 C         0.024422         0.232202        -0.203403
 C         1.426346        -0.020635         0.113225
 C         2.177992         0.811369         1.233891
 C         3.352788         0.589575         0.405670
 C         3.189176        -0.878289        -0.343008
 O         4.269859        -1.578250        -0.811074
 C         1.876064        -1.503349         0.140145
 C         2.597578         0.380200        -0.891631
 O         2.506372         0.934348        -2.195806
 H        -0.529411        -0.582111         0.297248
 H        -0.364051         1.155647         0.271418
 H        -0.186369         0.252767        -1.254728
 H         1.783557         1.884096         1.227793
 H         2.279132         0.450418         2.227084
 H         4.442685         0.939738         0.471932
 H         4.803444        -2.042001         0.012323
 H         1.197473        -1.987019        -0.508829
 H         1.790203        -2.018797         1.182199
 H         3.356112         0.946570        -2.589781
