19
Iteration:  1658
 C        -0.052186         0.059087        -0.329292
 C         1.392047         0.029341         0.117945
 C         2.112179         0.701383         1.296892
 C         3.449352         0.543599         0.428665
 C         3.221901        -0.825971        -0.317210
 O         4.300706        -1.647433        -0.683722
 C         1.925343        -1.489161         0.000555
 C         2.608170         0.449075        -0.831659
 O         2.531191         1.065937        -2.119571
 H        -0.680729        -0.408092         0.381046
 H        -0.533488         1.171486        -0.472298
 H        -0.031162        -0.354829        -1.434111
 H         1.628263         1.702235         1.502096
 H         1.996140         0.089927         2.163887
 H         4.446817         0.668503         0.540045
 H         4.835809        -1.264019        -1.576068
 H         1.358351        -1.960339        -0.833049
 H         1.722131        -1.978749         0.959602
 H         2.798792         2.055189        -2.065648
