19
Iteration:  4946charge 0 multiplicity 1
 C        -0.091624         0.179779        -0.280672
 C         1.350751         0.005588         0.086728
 C         2.136062         0.697648         1.245928
 C         3.397642         0.452512         0.439414
 C         3.213093        -0.849198        -0.377421
 O         4.301221        -1.648540        -0.596401
 C         1.870003        -1.393713        -0.040834
 C         2.626629         0.443544        -0.863862
 O         2.664105         1.034883        -2.093381
 H        -0.795989        -0.652525         0.227371
 H        -0.326563         1.212724        -0.236519
 H        -0.019304         0.054788        -1.332431
 H         1.722855         1.781741         1.184463
 H         2.158140         0.388482         2.347128
 H         4.319394         0.978674         0.662021
 H         4.313892        -2.049592        -1.425729
 H         1.480852        -1.968132        -0.950313
 H         1.758780        -2.250025         0.725268
 H         2.648960         1.915760        -1.971325
