19
Iteration:  4383charge 0 multiplicity 1
 C        -0.120618         0.362904        -0.280521
 C         1.319854        -0.016843         0.006065
 C         2.138111         0.651004         1.260813
 C         3.401948         0.472266         0.394294
 C         3.245425        -0.935803        -0.351500
 O         4.435489        -1.483910        -0.632744
 C         1.891890        -1.523081         0.044520
 C         2.545327         0.341853        -0.919844
 O         2.614815         1.025882        -2.071506
 H        -0.926980        -0.035080         0.499034
 H        -0.343152         1.346566        -0.639468
 H        -0.404900        -0.379051        -1.067642
 H         1.867402         1.745766         1.482446
 H         2.073653         0.011495         2.138632
 H         4.437719         0.776024         0.443798
 H         4.266617        -2.233599        -1.215534
 H         1.389875        -2.079293        -0.728116
 H         1.751294        -2.040313         1.022566
 H         2.761248         2.019926        -1.815341
