19
Iteration:  1721
 C        -0.083276         0.395674        -0.182191
 C         1.370595        -0.127107         0.038846
 C         1.911520         0.630166         1.240141
 C         3.289904         0.495907         0.479503
 C         3.262828        -0.886126        -0.308012
 O         4.463885        -1.306477        -0.909840
 C         1.961773        -1.594195         0.045076
 C         2.574663         0.338185        -0.857263
 O         2.722835         0.875273        -2.117609
 H        -0.499758         0.222555         0.853419
 H        -0.027260         1.481455        -0.291719
 H        -0.779257         0.295544        -1.076463
 H         1.542805         1.622542         1.397530
 H         1.677381         0.194711         2.298279
 H         4.184514         0.973166         0.675055
 H         4.538935        -2.348156        -0.508503
 H         1.298103        -2.248094        -0.588698
 H         1.775591        -2.195735         0.949071
 H         2.592288         1.897853        -2.059220
