19
Iteration:  2325charge 0 multiplicity 1
 C        -0.082330         0.167011        -0.291317
 C         1.369007        -0.007838         0.085470
 C         2.032401         0.518402         1.315416
 C         3.415588         0.544062         0.528414
 C         3.157656        -0.817649        -0.353013
 O         4.299311        -1.517753        -0.776931
 C         1.851735        -1.442601         0.004341
 C         2.593619         0.477406        -0.852080
 O         2.819641         0.972472        -2.104358
 H        -0.655421         0.285413         0.619867
 H        -0.284034         0.989201        -0.902112
 H        -0.476228        -0.685843        -0.839210
 H         1.718952         1.540522         1.594239
 H         1.891685        -0.058419         2.307292
 H         4.503815         0.792761         0.721649
 H         4.723691        -1.048578        -1.611850
 H         1.372882        -1.902608        -0.914793
 H         1.841686        -1.989415         0.953059
 H         2.150151         1.563753        -2.374613
