19
Iteration:  1312charge 0 multiplicity 1
 C        -0.093422         0.152910        -0.205425
 C         1.330424        -0.017835         0.132939
 C         2.078132         0.692907         1.290852
 C         3.325340         0.585466         0.430057
 C         3.260277        -0.757694        -0.240478
 O         4.318016        -1.400918        -0.955972
 C         1.959074        -1.430336         0.060395
 C         2.537233         0.396322        -0.801363
 O         2.685384         0.709319        -2.193940
 H        -0.702535        -0.365752         0.590981
 H        -0.355246         1.149165        -0.346130
 H        -0.218191        -0.426189        -1.056544
 H         1.834060         1.746275         1.317201
 H         2.242856         0.363280         2.375871
 H         4.368620         1.043966         0.728837
 H         5.163808        -1.344844        -0.352323
 H         1.646703        -2.001657        -0.827687
 H         1.759234        -2.117736         0.957763
 H         2.174451         1.582843        -2.308155
