19
Iteration:  1682charge 0 multiplicity 1
 C        -0.088594         0.206273        -0.384726
 C         1.321552         0.014195         0.084630
 C         2.132142         0.571779         1.332305
 C         3.359199         0.513324         0.426449
 C         3.247125        -0.859680        -0.319607
 O         4.420629        -1.463501        -0.754965
 C         1.907802        -1.470794         0.067636
 C         2.565887         0.384756        -0.811723
 O         2.613268         0.979894        -2.103498
 H        -0.698288         0.001360         0.451642
 H        -0.273184         1.352118        -0.520079
 H        -0.363827        -0.317220        -1.329269
 H         1.972682         1.684303         1.506615
 H         2.077555        -0.018647         2.206344
 H         4.337712         0.999941         0.562888
 H         4.266819        -2.140691        -1.436965
 H         1.387675        -1.958572        -0.761400
 H         1.891448        -2.031669         1.056290
 H         2.258458         1.877536        -2.041189
