19
Iteration:  1880charge 0 multiplicity 1
 C        -0.072380         0.260154        -0.297558
 C         1.370588         0.049377         0.087549
 C         2.117141         0.466766         1.336400
 C         3.313296         0.509920         0.487748
 C         3.222549        -0.814664        -0.343940
 O         4.426105        -1.487269        -0.669901
 C         1.912562        -1.444264        -0.030791
 C         2.610471         0.459883        -0.844256
 O         2.524948         0.965928        -2.148250
 H        -0.805586        -0.152627         0.394068
 H        -0.303235         1.342834        -0.631592
 H        -0.183728        -0.270474        -1.218671
 H         1.776001         1.458908         1.698265
 H         2.065537        -0.135026         2.181606
 H         4.399266         0.938514         0.521008
 H         4.152352        -1.926753        -1.421173
 H         1.486907        -1.961749        -0.839482
 H         1.797225        -2.069437         0.832097
 H         3.440397         1.306083        -2.463403
