19
Iteration:  1919charge 0 multiplicity 1
 C        -0.100438         0.388899        -0.182133
 C         1.342211        -0.111111         0.008101
 C         1.963071         0.653397         1.195815
 C         3.311823         0.463753         0.476408
 C         3.285977        -0.889183        -0.299979
 O         4.453727        -1.471516        -0.746977
 C         1.940734        -1.581168        -0.007882
 C         2.649972         0.354507        -0.839080
 O         2.559381         1.020844        -2.035252
 H        -0.744132         0.301677         0.749592
 H        -0.230590         1.446323        -0.376853
 H        -0.537578        -0.312962        -0.963559
 H         1.712249         1.717056         0.983959
 H         1.796096         0.271580         2.285972
 H         4.180670         1.005667         0.849164
 H         4.698296        -1.309088        -1.783830
 H         1.697555        -1.902551        -1.099373
 H         1.838527        -2.313475         0.870311
 H         3.392787         0.983767        -2.509713
