19
Iteration:  3042charge 0 multiplicity 1
 C        -0.204734         0.333249        -0.174263
 C         1.232084        -0.043759         0.142643
 C         2.051897         0.666542         1.285606
 C         3.317284         0.495310         0.418675
 C         3.171131        -0.911957        -0.381346
 O         4.454001        -1.347889        -0.809101
 C         1.839217        -1.565455         0.092793
 C         2.636668         0.333862        -0.893757
 O         2.924542         0.871068        -2.121645
 H        -0.910924        -0.241218         0.519869
 H        -0.449741         1.439935        -0.220046
 H        -0.401882         0.103045        -1.182614
 H         1.786741         1.751217         1.209628
 H         2.138009         0.365933         2.361279
 H         4.343405         0.723345         0.541882
 H         4.245038        -1.756694        -1.776390
 H         1.289249        -2.121320        -0.660814
 H         1.676162        -2.018704         1.091593
 H         2.455404         1.715575        -2.178804
