19
Iteration:  1827charge 0 multiplicity 1
 C        -0.114088         0.222840        -0.295243
 C         1.325945        -0.104400         0.052998
 C         2.008705         0.773223         1.116052
 C         3.348476         0.463957         0.430574
 C         3.276468        -0.892739        -0.360862
 O         4.437062        -1.621906        -0.769522
 C         1.946837        -1.491152         0.164799
 C         2.579345         0.274013        -0.877652
 O         2.651860         1.166362        -1.961298
 H        -0.924250        -0.435106         0.219760
 H        -0.256247         1.225461         0.078991
 H        -0.326750         0.167598        -1.347328
 H         1.716528         1.825654         0.951456
 H         1.774425         0.448140         2.128220
 H         4.394740         0.981937         0.384308
 H         4.166185        -1.849912        -1.714938
 H         1.619375        -2.037789        -0.710020
 H         1.886377        -2.030655         1.119810
 H         2.808175         2.067453        -1.483716
