19
Iteration:  3767
 C        -0.013691         0.210721        -0.291287
 C         1.341603        -0.022875         0.061523
 C         2.184896         0.665051         1.243428
 C         3.369004         0.512080         0.307494
 C         3.223242        -0.917206        -0.346044
 O         4.398533        -1.648097        -0.523898
 C         1.843469        -1.513027         0.018072
 C         2.604030         0.418179        -0.920177
 O         2.497994         1.189019        -2.074318
 H        -0.726194        -0.233869         0.323488
 H        -0.323225         1.290089        -0.333014
 H        -0.158817        -0.147973        -1.400617
 H         1.873068         1.826321         1.309022
 H         2.296614        -0.038973         2.144709
 H         4.412967         0.919552         0.468387
 H         4.158655        -2.184190        -1.281491
 H         1.320511        -2.054892        -0.824849
 H         1.727277        -2.104826         0.925670
 H         3.176469         1.870447        -1.930998
