19
Iteration:  1731
 C        -0.076727         0.383015        -0.129371
 C         1.320708        -0.081035        -0.019610
 C         1.926450         0.644391         1.267423
 C         3.291795         0.504523         0.496511
 C         3.276926        -0.845172        -0.332790
 O         4.459166        -1.342404        -0.910797
 C         1.870586        -1.567638         0.035553
 C         2.578757         0.330547        -0.842970
 O         2.723252         0.851859        -2.106262
 H        -0.730386         0.145513         0.774516
 H        -0.058368         1.412833        -0.211345
 H        -0.562974        -0.148172        -0.965902
 H         1.543513         1.643147         1.312184
 H         1.870007        -0.007993         2.200060
 H         4.277660         0.936736         0.535355
 H         4.840238        -2.130174        -0.340510
 H         1.653030        -2.056143        -0.938571
 H         1.867711        -2.172025         0.975471
 H         2.856984         1.830253        -2.079625
