19
Iteration:  1783
 C        -0.110818         0.072280        -0.240133
 C         1.381051         0.053844         0.063515
 C         2.071562         0.611589         1.285059
 C         3.330038         0.505460         0.428555
 C         3.248981        -0.826896        -0.390805
 O         4.249288        -1.641588        -0.734559
 C         1.879901        -1.386667         0.047046
 C         2.600624         0.434580        -0.918157
 O         2.776759         1.060232        -2.106483
 H        -0.699893        -0.563573         0.538762
 H        -0.563198         1.067996        -0.312623
 H        -0.283784        -0.467371        -1.154177
 H         1.833897         1.675158         1.497695
 H         2.157783         0.100709         2.283498
 H         4.375611         0.973681         0.851424
 H         5.153044        -1.139421        -1.063242
 H         1.258308        -1.893989        -0.703510
 H         1.932814        -1.992815         1.016022
 H         2.338695         1.996395        -2.106967
