19
Iteration:   833
 C        -0.079190         0.219797        -0.251906
 C         1.389917         0.008510        -0.020265
 C         2.110099         0.752940         1.118595
 C         3.430155         0.532315         0.320156
 C         3.283025        -0.932762        -0.338103
 O         4.386879        -1.650658        -0.753783
 C         1.933864        -1.489687         0.253584
 C         2.584256         0.313154        -0.880809
 O         2.391334         1.079901        -2.007442
 H        -0.648957         0.093325         0.716968
 H        -0.323121         1.286375        -0.508747
 H        -0.469041        -0.369538        -1.167375
 H         1.942608         1.868884         1.270884
 H         1.912709         0.358915         2.076435
 H         4.376065         1.127237         0.603202
 H         5.112767        -1.170057        -0.676794
 H         1.575258        -2.104731        -0.560574
 H         1.850804        -1.925386         1.364915
 H         3.119747         1.137585        -2.659259
