19
Iteration:  1284
 C        -0.175723         0.157884        -0.155009
 C         1.336178        -0.063055         0.026554
 C         2.059595         0.770114         1.173467
 C         3.297790         0.555219         0.393092
 C         3.252837        -0.876002        -0.340476
 O         4.451883        -1.414458        -0.858383
 C         1.989913        -1.526473         0.223144
 C         2.608377         0.311971        -0.884715
 O         2.624300         0.949430        -2.168849
 H        -0.579985        -0.508785         0.572279
 H        -0.474215         1.275368         0.017831
 H        -0.543565        -0.075695        -1.261630
 H         1.741052         1.861208         1.244127
 H         2.195292         0.452213         2.197242
 H         4.264251         1.022083         0.506018
 H         4.572956        -2.306192        -0.293505
 H         1.552911        -2.323291        -0.388621
 H         2.069323        -1.784943         1.269441
 H         2.295175         1.901386        -1.979047
