19
Iteration:  2165charge 0 multiplicity 1
 C        -0.167858         0.331410        -0.261944
 C         1.304510         0.003074         0.019617
 C         2.006032         0.543016         1.237471
 C         3.270487         0.417240         0.437959
 C         3.304520        -0.926068        -0.372626
 O         4.368460        -1.586620        -0.865372
 C         1.985100        -1.483384         0.157381
 C         2.562446         0.357705        -0.887445
 O         2.730256         1.173624        -1.984730
 H        -0.817493         0.003118         0.496296
 H        -0.226363         1.440650        -0.323792
 H        -0.502130         0.064316        -1.237702
 H         1.752843         1.622194         1.402945
 H         1.958457        -0.038224         2.154063
 H         4.305507         0.936206         0.597895
 H         5.255881        -1.015226        -0.691485
 H         1.478719        -2.193770        -0.473947
 H         1.972822        -1.763897         1.225521
 H         2.793328         0.664790        -2.818449
