19
Iteration:   271
 C         0.005561         0.250932        -0.276358
 C         1.427090         0.003651         0.122368
 C         2.219373         0.855907         1.304204
 C         3.395868         0.586967         0.368944
 C         3.203806        -0.913747        -0.339218
 O         4.305150        -1.618629        -0.786227
 C         1.906065        -1.521103         0.145138
 C         2.579262         0.336145        -0.919501
 O         2.403937         0.985194        -2.186594
 H        -0.799877        -0.413557         0.205026
 H        -0.176723         1.316150         0.000740
 H        -0.167383         0.200235        -1.307536
 H         1.835166         1.964796         1.428001
 H         2.100109         0.282952         2.264504
 H         4.380903         1.065236         0.683439
 H         4.720156        -2.117002         0.141588
 H         1.491680        -2.100249        -0.647176
 H         1.893495        -2.138509         1.163142
 H         3.256908         0.919942        -2.548096
