19
Iteration:  2258
 C        -0.065367         0.287776        -0.302268
 C         1.375122        -0.120706         0.022444
 C         2.037463         0.642150         1.308061
 C         3.313104         0.557580         0.379173
 C         3.252746        -0.877531        -0.330012
 O         4.293920        -1.592058        -0.758169
 C         1.975619        -1.594258         0.091285
 C         2.554423         0.340135        -0.924828
 O         2.638061         1.163578        -2.063879
 H        -0.715804        -0.224144         0.475367
 H        -0.199634         1.349450        -0.270976
 H        -0.381590        -0.058606        -1.305376
 H         1.500749         1.624976         1.359163
 H         1.990542         0.038067         2.306797
 H         4.220806         1.047257         0.485985
 H         5.119175        -1.230589        -0.690200
 H         1.607054        -2.197301        -0.798802
 H         1.999913        -2.100041         1.072594
 H         3.357465         1.810366        -1.717096
