19
Iteration:   469charge 0 multiplicity 1
 C        -0.074084         0.208233        -0.205102
 C         1.370229        -0.059718         0.125852
 C         2.175910         0.749318         1.214097
 C         3.420828         0.512558         0.379236
 C         3.183562        -0.853287        -0.323107
 O         4.297276        -1.612912        -0.773586
 C         1.902716        -1.440989         0.171892
 C         2.596127         0.368336        -0.947027
 O         2.591650         1.059852        -2.166457
 H        -0.884094         0.037021         0.593868
 H        -0.092729         1.242523        -0.505900
 H        -0.337219        -0.292151        -1.071378
 H         1.744046         1.841104         1.066958
 H         2.168716         0.433639         2.273994
 H         4.470164         0.779000         0.575203
 H         5.066124        -1.576946        -0.284367
 H         1.491915        -2.147461        -0.438048
 H         2.033987        -1.817818         1.197662
 H         1.946158         0.567289        -2.666947
