19
Iteration:  4643
 C        -0.105715         0.238788        -0.418850
 C         1.311862        -0.000085         0.051917
 C         2.023804         0.685380         1.267793
 C         3.355479         0.483515         0.463471
 C         3.276209        -0.903138        -0.296532
 O         4.400404        -1.538405        -0.842604
 C         1.827392        -1.461549         0.128967
 C         2.593628         0.317076        -0.793579
 O         2.794214         1.088773        -1.958141
 H        -0.739062         0.340460         0.385160
 H        -0.035643         1.114818        -1.092762
 H        -0.573985        -0.596621        -0.991541
 H         1.931610         1.739035         1.413070
 H         2.001395         0.144289         2.284090
 H         4.334232         0.993433         0.576422
 H         4.264332        -1.474063        -1.808351
 H         1.265164        -2.015547        -0.621012
 H         1.811145        -2.123294         1.033149
 H         1.982481         0.785051        -2.497539
