19
Iteration:  1648charge 0 multiplicity 1
 C        -0.039963         0.066275        -0.317904
 C         1.378055         0.008240         0.062409
 C         2.081874         0.689421         1.262755
 C         3.405120         0.522205         0.437619
 C         3.251892        -0.859318        -0.319914
 O         4.259394        -1.679102        -0.718708
 C         1.939866        -1.446039         0.060968
 C         2.588515         0.462265        -0.849543
 O         2.537921         1.099503        -2.106591
 H        -0.554791        -0.551507         0.340307
 H        -0.441843         1.156317        -0.192850
 H        -0.271324        -0.315750        -1.370528
 H         1.969547         1.826923         1.286431
 H         1.977893         0.332637         2.241672
 H         4.366762         0.861385         0.576291
 H         5.112785        -1.107212        -1.100183
 H         1.548694        -2.027017        -0.799393
 H         2.017616        -2.192769         0.876818
 H         2.977565         1.997812        -1.992139
