19
Iteration:  4375
 C        -0.097186         0.306122        -0.322402
 C         1.308661        -0.010457         0.052611
 C         2.179736         0.686720         1.288646
 C         3.341664         0.456081         0.369896
 C         3.185117        -0.877192        -0.351888
 O         4.416204        -1.508522        -0.659633
 C         1.888932        -1.514143         0.061039
 C         2.560985         0.307226        -0.891831
 O         2.661875         1.018382        -2.047840
 H        -0.664392         0.012772         0.491201
 H        -0.273657         1.330884        -0.457165
 H        -0.376823        -0.231330        -1.218108
 H         1.774277         1.707825         1.166322
 H         2.097877         0.081832         2.276901
 H         4.318404         0.890120         0.502225
 H         4.316221        -2.088861        -1.473865
 H         1.563234        -2.093929        -0.841577
 H         1.784346        -2.019673         1.023786
 H         2.536233         2.028010        -1.920713
