19
Iteration:  3490
 C        -0.108914         0.304598        -0.250313
 C         1.305421        -0.009523         0.122310
 C         2.048220         0.720452         1.233158
 C         3.346209         0.444236         0.460593
 C         3.194917        -0.933125        -0.331390
 O         4.389833        -1.474491        -0.915638
 C         1.851812        -1.503214         0.183123
 C         2.543767         0.320868        -0.859549
 O         2.825149         0.945321        -2.032402
 H        -0.953685        -0.001597         0.397782
 H        -0.129158         1.301290        -0.774101
 H        -0.453043        -0.511983        -1.164845
 H         1.869504         1.809650         1.236760
 H         1.904627         0.222445         2.237931
 H         4.319097         0.977876         0.370686
 H         4.404363        -1.359069        -1.906791
 H         1.389401        -2.069551        -0.618080
 H         1.770361        -1.849815         1.230400
 H         3.003215         1.837881        -1.834945
