19
Iteration:  3924
 C        -0.172213         0.312074        -0.180829
 C         1.276232        -0.026845         0.148702
 C         2.108293         0.679522         1.262224
 C         3.295053         0.511759         0.374866
 C         3.201056        -0.932305        -0.332357
 O         4.447385        -1.461438        -0.693490
 C         1.842670        -1.497834         0.014174
 C         2.602076         0.361175        -0.905867
 O         2.807143         0.891895        -2.158437
 H        -0.759322        -0.251290         0.441685
 H        -0.512403         1.349851         0.072063
 H        -0.278716         0.197894        -1.260264
 H         1.712028         1.786807         1.490021
 H         1.871852         0.136518         2.255657
 H         4.357208         0.879842         0.399925
 H         4.448740        -1.513505        -1.683763
 H         1.277680        -1.974318        -0.791350
 H         1.702256        -2.172819         0.886559
 H         3.014439         1.805247        -2.052003
