19
Iteration:  2865
 C        -0.197712         0.287079        -0.196330
 C         1.311911         0.020372         0.070537
 C         2.142562         0.566581         1.293778
 C         3.357389         0.516136         0.379377
 C         3.230499        -0.826261        -0.329089
 O         4.401994        -1.472530        -0.682502
 C         1.858981        -1.456189        -0.006242
 C         2.583618         0.361185        -0.892771
 O         2.795592         0.915568        -2.126193
 H        -0.780288        -0.257246         0.530819
 H        -0.519478         1.299076        -0.172807
 H        -0.395476        -0.199641        -1.068242
 H         1.692989         1.596806         1.532938
 H         1.986412         0.003274         2.293962
 H         4.397787         0.935478         0.414394
 H         4.128204        -1.869390        -1.473253
 H         1.415664        -1.812247        -0.917995
 H         1.712486        -2.205871         0.795299
 H         2.501591         1.823173        -2.128146
