19
Iteration:  2289charge 0 multiplicity 1
 C        -0.173255         0.286679        -0.307771
 C         1.298336        -0.066998         0.055222
 C         1.969073         0.711520         1.267865
 C         3.420991         0.415154         0.512206
 C         3.312980        -0.874680        -0.354081
 O         4.405211        -1.496471        -0.928343
 C         1.879172        -1.527847         0.088754
 C         2.570175         0.330103        -0.799800
 O         2.715339         0.997604        -2.017422
 H        -0.821356         0.223899         0.620104
 H        -0.248311         1.214618        -0.655369
 H        -0.589163        -0.456923        -0.999568
 H         1.604435         1.702455         0.982031
 H         1.649755         0.411412         2.255572
 H         4.298159         0.931648         0.721195
 H         5.159201        -0.738610        -1.024102
 H         1.357477        -2.101025        -0.692904
 H         1.808059        -2.212495         0.963008
 H         3.260948         1.739580        -1.892855
