19
Iteration:   762charge 0 multiplicity 1
 C        -0.146796         0.313146        -0.198459
 C         1.350093         0.007756         0.079559
 C         2.120465         0.721903         1.233449
 C         3.330223         0.535635         0.433831
 C         3.268463        -0.829052        -0.232395
 O         4.375021        -1.333791        -0.947928
 C         1.913261        -1.501165         0.198730
 C         2.596826         0.321713        -0.850379
 O         2.643651         0.801387        -2.188261
 H        -0.732840        -0.073879         0.695438
 H        -0.320463         1.397833        -0.132240
 H        -0.466788        -0.018082        -1.162478
 H         1.814990         1.703901         1.457850
 H         2.076818         0.116606         2.196842
 H         4.314508         0.845278         0.556374
 H         4.628020        -2.101741        -0.463488
 H         1.491635        -2.097590        -0.681149
 H         1.788670        -2.057830         1.160736
 H         2.654053         0.005165        -2.734429
