19
Iteration:  3595charge 0 multiplicity 1
 C        -0.055838         0.326974        -0.216230
 C         1.394535        -0.016961         0.008207
 C         2.078831         0.671078         1.253184
 C         3.323460         0.394589         0.431993
 C         3.197043        -0.891740        -0.386223
 O         4.424979        -1.579989        -0.611989
 C         1.899545        -1.493994         0.030792
 C         2.594349         0.360431        -0.978741
 O         2.641083         1.091169        -2.112335
 H        -0.780865        -0.261130         0.508529
 H        -0.407745         1.321372         0.108729
 H        -0.394859         0.180477        -1.199482
 H         1.803280         1.762509         1.396343
 H         1.802896         0.056031         2.114166
 H         4.336222         0.803924         0.603118
 H         4.394831        -2.038526        -1.394653
 H         1.440020        -2.247885        -0.600818
 H         1.914133        -1.927161         1.052560
 H         2.395725         1.994510        -2.020245
