19
Iteration:   134charge 0 multiplicity 1
 C        -0.183432         0.190433        -0.027936
 C         1.297930         0.001577         0.142922
 C         2.122997         0.855075         1.181136
 C         3.328460         0.605092         0.358726
 C         3.218997        -0.788296        -0.296969
 O         4.284420        -1.510772        -0.935806
 C         1.893674        -1.498842         0.114670
 C         2.553223         0.381526        -0.918440
 O         2.839731         0.848526        -2.126191
 H        -0.679721        -0.109887         0.834827
 H        -0.444172         1.218985        -0.227953
 H        -0.545549        -0.434119        -0.879714
 H         1.897956         1.885922         1.248763
 H         2.101888         0.367550         2.100654
 H         4.368371         0.963077         0.532490
 H         4.683752        -2.060251        -0.125183
 H         1.486927        -2.116767        -0.764030
 H         1.824457        -2.120557         0.989087
 H         3.271787         0.082013        -2.679711
