19
Iteration:  1962charge 0 multiplicity 1
 C        -0.135705         0.155535        -0.375117
 C         1.312757         0.030191         0.123603
 C         2.129461         0.582242         1.242508
 C         3.366465         0.499452         0.447674
 C         3.194527        -0.884673        -0.367952
 O         4.402269        -1.436322        -0.782256
 C         1.870744        -1.512059         0.176137
 C         2.535249         0.366785        -0.894019
 O         2.691172         1.119596        -2.071238
 H        -0.735652        -0.167042         0.573501
 H        -0.462479         1.144617        -0.458435
 H        -0.332877        -0.488461        -1.293199
 H         2.007697         1.618385         1.401214
 H         2.162652        -0.138780         2.068110
 H         4.413787         0.813929         0.578998
 H         4.141583        -2.184715        -1.189687
 H         1.409579        -2.022455        -0.704073
 H         1.817911        -1.980726         1.173327
 H         3.534677         1.663039        -2.031747
