19
Iteration:   269charge 0 multiplicity 1
 C        -0.017125         0.261934        -0.280591
 C         1.422491         0.010640         0.125304
 C         2.208082         0.841637         1.315994
 C         3.411291         0.587722         0.357717
 C         3.206758        -0.919399        -0.335050
 O         4.318385        -1.628999        -0.779385
 C         1.915731        -1.512911         0.152065
 C         2.580022         0.326640        -0.918418
 O         2.380088         0.991569        -2.172946
 H        -0.774372        -0.324998         0.158777
 H        -0.179483         1.345080        -0.083997
 H        -0.142123         0.165391        -1.400022
 H         1.891484         1.913225         1.450046
 H         2.098648         0.348697         2.201027
 H         4.422350         1.041486         0.640382
 H         4.698207        -2.112226         0.114619
 H         1.597426        -2.113305        -0.692218
 H         1.931461        -2.112362         1.125412
 H         3.275790         0.922101        -2.592009
