19
Iteration:  2484
 C        -0.174619         0.235630        -0.349264
 C         1.356336        -0.041911         0.077172
 C         2.119955         0.691035         1.220838
 C         3.365383         0.412027         0.428770
 C         3.207016        -0.977358        -0.289486
 O         4.399445        -1.359503        -0.786346
 C         1.838481        -1.493823         0.074550
 C         2.616016         0.298821        -0.841593
 O         2.674577         1.033619        -1.997119
 H        -0.823950        -0.102344         0.329829
 H        -0.349223         1.317880        -0.626654
 H        -0.442513        -0.328619        -1.196878
 H         1.910391         1.797214         1.397177
 H         1.968022         0.355486         2.296975
 H         4.355649         0.931277         0.577918
 H         4.165294        -1.569039        -1.650756
 H         1.445347        -2.001430        -0.769406
 H         1.871073        -2.096083         1.000438
 H         3.508840         1.445936        -1.972748
