19
Iteration:  4087charge 0 multiplicity 1
 C        -0.165076         0.273843        -0.134854
 C         1.299265         0.014397         0.074436
 C         2.041049         0.679988         1.276900
 C         3.341168         0.497120         0.516473
 C         3.213041        -0.824810        -0.279468
 O         4.371562        -1.424707        -0.805169
 C         1.858841        -1.473265        -0.039424
 C         2.633685         0.424272        -0.843175
 O         2.884873         0.731844        -2.187116
 H        -0.738048        -0.373750         0.620591
 H        -0.687422         1.281796         0.004059
 H        -0.469094         0.070418        -1.172950
 H         1.820604         1.647090         1.526295
 H         1.834771         0.309570         2.255308
 H         4.259965         0.958186         0.785577
 H         4.106182        -1.552523        -1.793921
 H         1.561033        -1.795680        -1.037402
 H         1.653613        -2.185832         0.804232
 H         2.641989         1.649917        -2.269049
