19
Iteration:  2561charge 0 multiplicity 1
 C        -0.116811         0.210795        -0.222703
 C         1.399819         0.005215         0.040980
 C         2.073866         0.660691         1.218309
 C         3.338904         0.497515         0.457557
 C         3.254797        -0.902879        -0.304612
 O         4.440114        -1.556182        -0.627462
 C         1.851473        -1.447355        -0.099119
 C         2.618364         0.404734        -0.842771
 O         2.681728         1.039724        -2.081284
 H        -0.661130        -0.168348         0.574376
 H        -0.328367         1.333915        -0.306581
 H        -0.534853        -0.258325        -1.093823
 H         1.910205         1.813245         1.333504
 H         1.931589         0.199069         2.319335
 H         4.362048         1.043075         0.585923
 H         4.262701        -2.004752        -1.569394
 H         1.551202        -1.704160        -1.123448
 H         1.543867        -2.282218         0.640544
 H         1.718151         1.177822        -2.286583
