19
Iteration:  2662
 C        -0.077313         0.181956        -0.306988
 C         1.387377         0.020871         0.069255
 C         2.124844         0.709591         1.325584
 C         3.335626         0.468734         0.441230
 C         3.212103        -0.874995        -0.280731
 O         4.376079        -1.490717        -0.720597
 C         1.830940        -1.449773        -0.042858
 C         2.602664         0.397263        -0.848684
 O         2.622231         1.012048        -2.063249
 H        -0.543417        -0.300258         0.478947
 H        -0.486179         1.142839        -0.361982
 H        -0.299358        -0.407254        -1.222537
 H         1.964290         1.844834         1.330339
 H         2.216987         0.170974         2.321512
 H         4.341557         0.737790         0.636987
 H         4.109931        -2.242678        -1.433290
 H         1.471523        -1.790705        -1.033162
 H         1.577763        -2.229569         0.682412
 H         3.412877         1.326440        -2.434112
