19
Iteration:  3601charge 0 multiplicity 1
 C        -0.105094         0.337591        -0.220642
 C         1.401985        -0.016098         0.019487
 C         2.034700         0.692714         1.263532
 C         3.357015         0.431722         0.444634
 C         3.202456        -0.918878        -0.371546
 O         4.419152        -1.558036        -0.659916
 C         1.927955        -1.541368         0.042334
 C         2.558200         0.369366        -0.916624
 O         2.692045         1.052338        -2.108410
 H        -0.639097        -0.243512         0.503823
 H        -0.400564         1.405007         0.028869
 H        -0.408241         0.202820        -1.367635
 H         1.860001         1.773261         1.247122
 H         1.820738         0.007619         2.113917
 H         4.305002         0.931690         0.471394
 H         4.221301        -2.041103        -1.601358
 H         1.320653        -2.211105        -0.630495
 H         1.962271        -1.988125         1.037971
 H         2.397038         2.019815        -1.945281
