19
Iteration:  1182charge 0 multiplicity 1
 C        -0.100877         0.275541        -0.259319
 C         1.351059        -0.090968         0.109034
 C         2.086258         0.728632         1.197781
 C         3.314215         0.601786         0.327295
 C         3.285144        -0.823088        -0.296492
 O         4.419876        -1.497032        -0.758267
 C         2.030200        -1.589920         0.231486
 C         2.602359         0.317224        -0.909708
 O         2.412346         0.907697        -2.111080
 H        -0.783126         0.223975         0.680561
 H        -0.066123         1.333228        -0.573280
 H        -0.518861        -0.289829        -1.122675
 H         1.762513         1.702460         1.312589
 H         1.989576         0.195212         2.184914
 H         4.283146         1.170821         0.579406
 H         4.982537        -0.863294        -1.471008
 H         1.697269        -2.266060        -0.538055
 H         2.064513        -2.043136         1.259061
 H         3.178276         1.256060        -2.504807
