19
Iteration:  1272charge 0 multiplicity 1
 C        -0.083578         0.117915        -0.127346
 C         1.348849        -0.043360         0.083274
 C         2.005310         0.765320         1.210240
 C         3.294553         0.585947         0.305316
 C         3.268536        -0.903868        -0.392933
 O         4.491037        -1.489773        -0.778137
 C         2.004195        -1.487092         0.235986
 C         2.518447         0.308647        -1.015779
 O         2.588378         1.042631        -2.148313
 H        -0.761037        -0.448563         0.465873
 H        -0.378769         1.211580         0.170746
 H        -0.435842        -0.141996        -1.232323
 H         1.746833         1.820513         1.029443
 H         1.780873         0.448908         2.244779
 H         4.364933         0.836854         0.619666
 H         4.567569        -2.496573        -0.405386
 H         1.550648        -2.336279        -0.278745
 H         2.122236        -1.800637         1.288464
 H         2.635268         1.970579        -1.982091
