19
Iteration:   485
 C        -0.086089         0.209288        -0.142319
 C         1.341530        -0.035200         0.174157
 C         2.145722         0.793344         1.203520
 C         3.377903         0.584861         0.319035
 C         3.196468        -0.851091        -0.327387
 O         4.236849        -1.563832        -0.842381
 C         1.922977        -1.515594         0.191345
 C         2.570513         0.397883        -0.881962
 O         2.757058         0.955581        -2.171727
 H        -0.661709        -0.311666         0.574600
 H        -0.368604         1.286014        -0.059387
 H        -0.323273        -0.251492        -1.206943
 H         1.924139         1.803652         1.221451
 H         2.178913         0.344098         2.179794
 H         4.325729         1.145963         0.338878
 H         4.829945        -1.521934        -0.143309
 H         1.378584        -2.112292        -0.722013
 H         1.798872        -2.221235         1.050956
 H         2.124325         0.600996        -2.753778
