19
Iteration:  4804
 C         0.010512         0.318902        -0.383894
 C         1.320983        -0.035636         0.139660
 C         2.003499         0.673821         1.346507
 C         3.309896         0.483122         0.468233
 C         3.221324        -0.840754        -0.329971
 O         4.369279        -1.581196        -0.859018
 C         1.857918        -1.511538         0.081014
 C         2.552813         0.355555        -0.797905
 O         2.813635         0.980661        -2.050810
 H        -0.877018        -0.057675         0.154477
 H        -0.012744         1.388739        -0.526216
 H        -0.195351        -0.005939        -1.383134
 H         1.739268         1.824317         1.194058
 H         1.931956         0.144337         2.385687
 H         4.167909         1.125839         0.546381
 H         4.186505        -1.572920        -1.802195
 H         1.385926        -2.330820        -0.461882
 H         1.969827        -1.975462         1.040946
 H         2.199252         1.767667        -2.171274
