19
Iteration:  2927
 C        -0.111108         0.278023        -0.296828
 C         1.361430        -0.041543         0.025848
 C         2.079437         0.664907         1.254186
 C         3.365541         0.385411         0.423824
 C         3.243432        -0.927108        -0.342061
 O         4.522765        -1.496626        -0.733790
 C         1.820136        -1.508941         0.164601
 C         2.563462         0.385415        -0.888940
 O         2.614489         1.086222        -2.109185
 H        -0.738589         0.288930         0.696594
 H        -0.224887         1.289779        -0.757238
 H        -0.669515        -0.334482        -1.146760
 H         1.863801         1.744819         1.249136
 H         1.994534         0.303072         2.261106
 H         4.428204         0.602025         0.568708
 H         4.338796        -2.054614        -1.504843
 H         1.292292        -2.186110        -0.571818
 H         1.783839        -1.913441         1.187185
 H         2.611040         2.020397        -1.885598
