19
Iteration:   290charge 0 multiplicity 1
 C        -0.069471         0.223864        -0.109167
 C         1.395941         0.021994         0.111912
 C         2.103360         0.742143         1.196158
 C         3.416314         0.571150         0.342772
 C         3.172619        -0.880292        -0.324146
 O         4.274881        -1.540393        -0.857829
 C         1.864772        -1.412237         0.163668
 C         2.633415         0.373459        -0.879103
 O         2.584917         0.882370        -2.154889
 H        -0.553381        -0.635300         0.198658
 H        -0.524367         1.139098         0.309782
 H        -0.223962         0.228031        -1.249418
 H         1.838530         1.777940         1.098283
 H         2.109558         0.523994         2.189796
 H         4.523589         0.806174         0.357764
 H         4.848627        -1.956798        -0.022562
 H         1.434956        -2.035865        -0.639989
 H         1.862295        -1.869094         1.153168
 H         3.448718         0.899622        -2.528639
