19
Iteration:  4950
 C        -0.049870         0.158394        -0.302547
 C         1.353761         0.031244         0.077067
 C         2.142342         0.659476         1.252831
 C         3.391937         0.508525         0.442866
 C         3.239697        -0.891400        -0.386786
 O         4.274058        -1.639610        -0.594694
 C         1.848595        -1.393069        -0.019288
 C         2.632888         0.411133        -0.861546
 O         2.643072         1.018568        -2.083752
 H        -0.730055        -0.476400         0.064222
 H        -0.355237         1.214126        -0.169017
 H        -0.058700        -0.049430        -1.384398
 H         1.776859         1.709135         1.234921
 H         2.140582         0.484825         2.339144
 H         4.327352         1.068163         0.674081
 H         4.238979        -1.936507        -1.592903
 H         1.515511        -1.823226        -0.951628
 H         1.793357        -2.112475         0.761312
 H         2.700610         2.068861        -1.846088
