19
Iteration:  1610
 C        -0.172431         0.203217        -0.190511
 C         1.310404        -0.104472         0.015503
 C         2.026540         0.714795         1.141540
 C         3.311450         0.492721         0.267822
 C         3.201447        -0.909873        -0.339510
 O         4.469783        -1.529769        -0.853618
 C         1.944376        -1.542280         0.251501
 C         2.576310         0.328200        -0.931967
 O         2.725181         1.163410        -2.032312
 H        -0.777502        -0.578834         0.552038
 H        -0.514653         1.163755         0.210805
 H        -0.502520         0.210828        -1.258056
 H         1.790430         1.750682         1.121896
 H         1.893357         0.331131         2.245912
 H         4.313511         1.075504         0.466287
 H         4.690591        -2.099808        -0.003003
 H         1.511176        -2.141077        -0.559781
 H         1.917654        -2.030273         1.245018
 H         2.921807         2.021089        -1.738381
