19
Iteration:  4088
 C        -0.166380         0.272524        -0.135963
 C         1.304028         0.003417         0.073291
 C         2.041737         0.682791         1.293043
 C         3.334512         0.501382         0.521404
 C         3.209696        -0.824267        -0.292611
 O         4.370511        -1.425892        -0.804275
 C         1.861005        -1.467591        -0.035344
 C         2.644379         0.426485        -0.844213
 O         2.886277         0.727810        -2.187691
 H        -0.724062        -0.362707         0.600958
 H        -0.734205         1.281222         0.012701
 H        -0.459038         0.063804        -1.190743
 H         1.833697         1.662730         1.501418
 H         1.831883         0.294867         2.233550
 H         4.266592         0.943336         0.778464
 H         4.086406        -1.538988        -1.826339
 H         1.548221        -1.807122        -1.022876
 H         1.622410        -2.159719         0.810177
 H         2.622614         1.676534        -2.283535
