19
Iteration:  3070charge 0 multiplicity 1
 C        -0.098908         0.389567        -0.150026
 C         1.276279        -0.072654        -0.060228
 C         1.952261         0.561382         1.145895
 C         3.326441         0.409887         0.463578
 C         3.239807        -0.825575        -0.322812
 O         4.437243        -1.426572        -0.770702
 C         1.959268        -1.486901         0.158815
 C         2.578965         0.360666        -0.911043
 O         2.783913         0.927628        -2.100725
 H        -0.577663         0.193177         0.814810
 H        -0.077088         1.438326        -0.296894
 H        -0.823647         0.000580        -0.944761
 H         1.729098         1.634489         1.296043
 H         1.776324         0.116859         2.242314
 H         4.368802         0.682640         0.675763
 H         4.088961        -1.923801        -1.622033
 H         1.527981        -2.188277        -0.572788
 H         1.751027        -1.824247         1.180824
 H         2.635135         1.841958        -2.029167
