19
Iteration:   739charge 0 multiplicity 1
 C        -0.145053         0.236266        -0.040064
 C         1.323835        -0.059933         0.137821
 C         2.013503         0.770833         1.223761
 C         3.374212         0.565908         0.437674
 C         3.235688        -0.793345        -0.383286
 O         4.313800        -1.428563        -0.958249
 C         1.942348        -1.471056         0.124942
 C         2.531648         0.356867        -0.863042
 O         2.814903         0.812217        -2.195228
 H        -0.747699        -0.267783         0.709020
 H        -0.265431         1.328477         0.201729
 H        -0.448197         0.083620        -1.100885
 H         1.743810         1.846555         1.107992
 H         1.774626         0.570878         2.323947
 H         4.385315         0.954990         0.580278
 H         4.757266        -1.845791        -0.052990
 H         1.463843        -2.190908        -0.663591
 H         1.861930        -1.856998         1.134439
 H         2.839729         0.004793        -2.755934
