19
Iteration:  2159charge 0 multiplicity 1
 C        -0.154478         0.358847        -0.279045
 C         1.293200        -0.017009         0.018120
 C         2.032066         0.507475         1.244970
 C         3.314579         0.433991         0.439980
 C         3.259093        -0.879192        -0.356241
 O         4.373422        -1.555451        -0.884763
 C         1.953558        -1.498053         0.182837
 C         2.562934         0.342349        -0.914163
 O         2.734995         1.176054        -1.979789
 H        -0.793600        -0.104271         0.596683
 H        -0.316485         1.431122        -0.441099
 H        -0.527965        -0.133516        -1.251329
 H         1.728255         1.540314         1.452612
 H         1.920013         0.119487         2.303588
 H         4.302548         0.822524         0.458766
 H         5.161886        -1.060997        -0.719974
 H         1.411050        -2.259034        -0.423166
 H         1.866033        -1.806798         1.251800
 H         3.116913         0.573449        -2.739211
