19
Iteration:  1787
 C        -0.113003         0.068128        -0.228036
 C         1.369200         0.022615         0.039154
 C         2.053651         0.637003         1.252038
 C         3.360642         0.515472         0.449800
 C         3.238637        -0.824807        -0.388709
 O         4.260467        -1.660805        -0.738748
 C         1.905962        -1.383671         0.091160
 C         2.622012         0.433759        -0.934643
 O         2.767849         1.097228        -2.089858
 H        -0.663865        -0.557425         0.507911
 H        -0.490507         1.059947        -0.300936
 H        -0.354191        -0.338068        -1.267558
 H         1.734932         1.638091         1.536896
 H         2.046889         0.176037         2.313111
 H         4.284015         0.884854         0.663830
 H         5.030738        -1.288485        -1.162005
 H         1.255898        -1.960321        -0.667767
 H         1.891920        -2.090090         0.995477
 H         2.305290         1.898678        -2.037201
