19
Iteration:  2638
 C        -0.123908         0.242801        -0.308609
 C         1.375179        -0.079741         0.080406
 C         2.016484         0.745912         1.190739
 C         3.409021         0.507965         0.487326
 C         3.220102        -0.860197        -0.321578
 O         4.362392        -1.570913        -0.822603
 C         1.945910        -1.532899         0.074440
 C         2.556731         0.410566        -0.771397
 O         2.649814         1.077858        -2.022419
 H        -0.866476        -0.282498         0.200929
 H        -0.340986         1.313551        -0.007858
 H        -0.239457         0.101081        -1.404271
 H         1.802763         1.811808         1.048784
 H         1.968093         0.303628         2.208306
 H         4.306420         1.011086         0.737280
 H         4.169120        -2.299804        -1.409820
 H         1.513710        -2.062642        -0.773610
 H         1.902009        -2.246552         0.949653
 H         3.529466         1.060381        -2.501204
