19
Iteration:  3378
 C        -0.148436         0.364129        -0.239768
 C         1.276757        -0.004206         0.068045
 C         2.134005         0.621682         1.203013
 C         3.331018         0.467401         0.388643
 C         3.199219        -0.934843        -0.424005
 O         4.476277        -1.456755        -0.680038
 C         1.858702        -1.527530         0.103539
 C         2.587320         0.290480        -0.919278
 O         2.713179         1.034759        -2.095401
 H        -0.836151        -0.297527         0.296154
 H        -0.249281         1.418212         0.098109
 H        -0.455310         0.166060        -1.395219
 H         1.878456         1.571966         1.421958
 H         2.025963         0.200014         2.163407
 H         4.342741         0.847445         0.572807
 H         4.378853        -2.315703        -1.002817
 H         1.324065        -2.126271        -0.596660
 H         1.919567        -1.978288         1.101086
 H         2.519922         1.970525        -1.722564
