19
Iteration:  4995charge 0 multiplicity 1
 C        -0.070552         0.392880        -0.457384
 C         1.302926        -0.067996         0.108733
 C         2.066087         0.637631         1.242944
 C         3.341076         0.410203         0.498537
 C         3.287053        -0.866891        -0.359214
 O         4.337817        -1.525052        -0.784382
 C         1.925560        -1.490315         0.223838
 C         2.550376         0.340369        -0.854711
 O         2.674334         0.952902        -2.083025
 H        -0.752354        -0.008054         0.136454
 H        -0.018400         1.511067        -0.431284
 H        -0.262946        -0.122560        -1.462868
 H         1.862469         1.804423         1.318762
 H         1.729245         0.371388         2.302048
 H         4.351659         0.783110         0.589905
 H         4.406393        -1.319147        -1.813389
 H         1.391993        -2.226250        -0.370086
 H         2.059806        -1.864083         1.214424
 H         2.941839         1.971358        -1.739851
