19
Iteration:  4168
 C        -0.000208         0.260942        -0.332271
 C         1.393914         0.026368         0.039273
 C         1.977995         0.768888         1.275183
 C         3.343078         0.480768         0.451968
 C         3.196522        -0.943971        -0.421561
 O         4.379713        -1.668689        -0.715083
 C         1.941807        -1.509690         0.117460
 C         2.626465         0.329689        -0.883859
 O         2.569404         1.092676        -2.033340
 H        -0.693963         0.012865         0.455365
 H        -0.194215         1.411663        -0.512998
 H        -0.325628        -0.405484        -1.212958
 H         1.704159         1.684434         0.989650
 H         1.889997         0.450490         2.221218
 H         4.390949         0.887825         0.596509
 H         4.524762        -1.470402        -1.707816
 H         1.359270        -2.237437        -0.477299
 H         2.070521        -1.948552         1.117965
 H         3.066308         1.896620        -1.748719
