19
Iteration:  4289
 C        -0.164734         0.204637        -0.233476
 C         1.344402        -0.025855         0.146789
 C         2.118473         0.760580         1.343541
 C         3.322314         0.525303         0.461472
 C         3.169256        -0.864986        -0.322125
 O         4.270629        -1.469968        -0.803154
 C         1.859301        -1.507594         0.052286
 C         2.601830         0.395321        -0.899261
 O         2.892196         0.830065        -2.165601
 H        -0.927346        -0.402760         0.269163
 H        -0.341789         1.332445         0.042521
 H        -0.493883         0.091574        -1.317195
 H         1.720273         1.772225         1.465222
 H         2.032395         0.051423         2.216553
 H         4.341636         0.823083         0.561958
 H         4.573038        -0.879949        -1.566978
 H         1.480045        -2.015025        -0.862274
 H         1.814637        -2.138947         0.929104
 H         2.926488         1.775423        -2.130715
