19
Iteration:  2547charge 0 multiplicity 1
 C        -0.133977         0.282542        -0.189808
 C         1.327954         0.002225        -0.078538
 C         2.022743         0.609288         1.206051
 C         3.414700         0.476886         0.473587
 C         3.281392        -0.856007        -0.256322
 O         4.451145        -1.579555        -0.638971
 C         1.906241        -1.458914        -0.095111
 C         2.640603         0.465840        -0.846499
 O         2.644127         1.030590        -2.105560
 H        -0.615997         0.045226         0.895411
 H        -0.517672         1.356663        -0.376505
 H        -0.454851        -0.415934        -0.950750
 H         1.658953         1.610554         1.207562
 H         1.899099        -0.070759         2.130766
 H         4.401531         0.724144         0.884814
 H         4.195482        -2.008133        -1.492468
 H         1.543676        -2.179541        -0.882193
 H         1.736240        -2.027141         0.917766
 H         1.863082         1.520338        -2.284012
