19
Iteration:  1706charge 0 multiplicity 1
 C        -0.088180         0.426730        -0.229455
 C         1.276957        -0.133923         0.037186
 C         2.006723         0.586635         1.227049
 C         3.281246         0.482928         0.506533
 C         3.240178        -0.855257        -0.345687
 O         4.438927        -1.336846        -0.858063
 C         1.960009        -1.589290         0.111707
 C         2.592301         0.322585        -0.850806
 O         2.700323         0.932019        -2.112584
 H        -0.847170         0.303654         0.603404
 H        -0.004515         1.491327        -0.388981
 H        -0.463643        -0.022425        -1.114979
 H         1.698540         1.649359         1.179825
 H         1.961957         0.141314         2.238568
 H         4.357634         0.897416         0.817068
 H         4.488272        -2.259509        -0.957629
 H         1.733122        -2.276532        -0.703063
 H         2.108216        -2.063108         1.152083
 H         2.248118         1.759770        -2.084284
