19
Iteration:   125charge 0 multiplicity 1
 C        -0.220013         0.216676        -0.044222
 C         1.295050        -0.005450         0.118865
 C         2.095594         0.814563         1.222946
 C         3.390183         0.601523         0.318219
 C         3.266743        -0.878342        -0.221723
 O         4.305511        -1.498336        -0.934987
 C         1.862468        -1.445774         0.175716
 C         2.561914         0.319487        -0.926638
 O         2.841343         0.896951        -2.164826
 H        -0.764430        -0.252050         0.694556
 H        -0.489687         1.266894        -0.114875
 H        -0.543284        -0.293767        -1.059136
 H         1.650019         1.863710         1.329206
 H         2.184390         0.392193         2.245706
 H         4.356019         1.071291         0.384081
 H         4.967313        -2.016029        -0.310031
 H         1.527085        -1.939417        -0.787107
 H         1.677352        -2.052181         1.069419
 H         2.801139         0.145474        -2.883490
