19
Iteration:  1484
 C        -0.121173         0.213023        -0.242674
 C         1.370428        -0.044554         0.021137
 C         2.061412         0.668232         1.214872
 C         3.355470         0.511420         0.354033
 C         3.275157        -0.910530        -0.301700
 O         4.472094        -1.345700        -0.821783
 C         1.892306        -1.548984         0.196854
 C         2.551519         0.318192        -0.888705
 O         2.570881         0.989864        -2.077503
 H        -0.773308        -0.166974         0.621365
 H        -0.338501         1.313923        -0.372323
 H        -0.438834        -0.299683        -1.195602
 H         1.904771         1.824440         1.139861
 H         1.979015         0.379186         2.242266
 H         4.402319         1.020918         0.358981
 H         4.486252        -2.441734        -0.857174
 H         1.599454        -2.323110        -0.532380
 H         1.788831        -1.906058         1.217230
 H         2.817852         1.843198        -1.789038
