19
Iteration:  1234
 C        -0.190392        -0.005227        -0.217638
 C         1.383136        -0.047107         0.014172
 C         2.233675         0.823712         1.189309
 C         3.414246         0.632130         0.247653
 C         3.289701        -0.855064        -0.286727
 O         4.438770        -1.604709        -0.574659
 C         1.995753        -1.447647         0.120138
 C         2.537249         0.355895        -0.941110
 O         2.388477         1.120262        -2.108953
 H        -0.598856        -0.565563         0.676522
 H        -0.597553         0.933787        -0.329518
 H        -0.400277        -0.467723        -1.098374
 H         1.814159         1.834239         1.265455
 H         2.065667         0.279508         2.167876
 H         4.463390         0.873614         0.309229
 H         4.134767        -2.281049        -1.184016
 H         1.610503        -2.011927        -0.775568
 H         1.843449        -1.897239         1.150653
 H         3.201288         1.610233        -2.055467
