19
Iteration:  2380
 C        -0.068945         0.321431        -0.213931
 C         1.386875        -0.074741        -0.070797
 C         1.993857         0.626998         1.221321
 C         3.347092         0.330062         0.502041
 C         3.155630        -0.894003        -0.407557
 O         4.477005        -1.429897        -0.673780
 C         1.879254        -1.528696         0.010456
 C         2.634095         0.411016        -0.882105
 O         2.662176         1.096793        -2.070058
 H        -0.663761        -0.199950         0.555171
 H        -0.186732         1.320405        -0.047986
 H        -0.526199        -0.017403        -1.155607
 H         1.845106         1.687038         1.104358
 H         1.912127         0.110517         2.226333
 H         4.346916         0.778563         0.858193
 H         4.397692        -2.361817        -1.205893
 H         1.325515        -2.318775        -0.624223
 H         1.880386        -1.934200         1.049392
 H         2.252028         1.994446        -2.077698
