19
Iteration:  1826charge 0 multiplicity 1
 C        -0.118386         0.217396        -0.294648
 C         1.319112        -0.104275         0.044795
 C         2.012710         0.771567         1.119975
 C         3.341454         0.466876         0.435214
 C         3.278473        -0.884940        -0.357748
 O         4.432440        -1.632538        -0.775285
 C         1.953021        -1.500057         0.169989
 C         2.584403         0.276708        -0.879480
 O         2.654103         1.170286        -1.961383
 H        -0.902606        -0.413248         0.216079
 H        -0.261319         1.255465         0.110611
 H        -0.323980         0.158592        -1.338303
 H         1.707876         1.821846         0.906767
 H         1.792093         0.462774         2.097258
 H         4.407296         0.991605         0.392222
 H         4.198481        -1.819715        -1.664652
 H         1.621390        -1.995673        -0.693207
 H         1.887973        -2.019576         1.098229
 H         2.779876         2.056564        -1.494207
