19
Iteration:  4058charge 0 multiplicity 1
 C        -0.144388         0.363235        -0.134126
 C         1.294299        -0.051473        -0.016904
 C         2.067951         0.587278         1.201790
 C         3.345090         0.501469         0.401232
 C         3.219197        -0.837168        -0.281544
 O         4.427395        -1.416613        -0.698411
 C         1.846647        -1.531390        -0.012355
 C         2.589985         0.379371        -0.852952
 O         2.762708         0.863022        -2.128355
 H        -0.654011        -0.036669         0.680523
 H        -0.145699         1.494164        -0.208969
 H        -0.746842        -0.092490        -0.966200
 H         1.662858         1.672772         1.472039
 H         1.991209         0.214409         2.278403
 H         4.298668         0.966301         0.586709
 H         4.338327        -1.818218        -1.541474
 H         1.586652        -2.108689        -0.915486
 H         1.687120        -2.085301         0.918522
 H         3.056258         1.739758        -2.042004
