19
Iteration:  4104
 C        -0.167576         0.177593        -0.214254
 C         1.319833         0.075405         0.068311
 C         2.046407         0.662802         1.342651
 C         3.347850         0.548899         0.551116
 C         3.188203        -0.844347        -0.357357
 O         4.315837        -1.463510        -0.852111
 C         1.811657        -1.411921         0.039386
 C         2.672976         0.456217        -0.823104
 O         2.895120         0.747650        -2.182789
 H        -0.721392        -0.560514         0.330364
 H        -0.345712         1.193547         0.055489
 H        -0.446959         0.015153        -1.283242
 H         1.546341         1.787949         1.534048
 H         2.060635         0.140725         2.409463
 H         4.427905         0.668300         0.846494
 H         4.495856        -1.354668        -1.785683
 H         1.301399        -2.066870        -0.708291
 H         1.881016        -1.881383         1.031508
 H         2.537660         1.560918        -2.458292
