19
Iteration:   843charge 0 multiplicity 1
 C        -0.079957         0.206811        -0.228361
 C         1.375410         0.016078         0.013159
 C         2.126642         0.796265         1.144660
 C         3.381884         0.506893         0.299036
 C         3.296879        -0.879349        -0.287981
 O         4.410117        -1.681411        -0.727462
 C         1.907796        -1.446110         0.213158
 C         2.541547         0.244431        -0.986414
 O         2.430174         1.138120        -2.000224
 H        -0.609782        -0.173177         0.752869
 H        -0.286391         1.264654        -0.405719
 H        -0.517191        -0.462415        -1.031561
 H         1.771464         1.842479         1.100375
 H         1.962207         0.273064         2.062731
 H         4.466715         0.955542         0.257654
 H         5.138486        -1.185709        -0.767609
 H         1.526879        -2.187948        -0.474066
 H         1.946860        -2.066631         1.235859
 H         3.278751         1.121157        -2.398170
