19
Iteration:  2743
 C        -0.162024         0.305043        -0.310070
 C         1.332121        -0.015989         0.035530
 C         2.090244         0.705717         1.195742
 C         3.381469         0.432783         0.501655
 C         3.261018        -0.939141        -0.308992
 O         4.459855        -1.446743        -0.742934
 C         1.879701        -1.523489         0.043512
 C         2.576014         0.292089        -0.875535
 O         2.671528         1.016291        -2.025220
 H        -0.860746         0.142835         0.573202
 H        -0.190495         1.392185        -0.460527
 H        -0.583101        -0.177837        -1.160246
 H         1.931710         1.847617         1.364096
 H         1.992769         0.240920         2.241745
 H         4.403221         0.743050         0.484055
 H         4.244454        -1.973745        -1.639704
 H         1.478508        -2.091262        -0.806731
 H         1.797578        -2.086906         0.974279
 H         2.127301         1.793313        -1.960837
