19
Iteration:  4273charge 0 multiplicity 1
 C        -0.154445         0.311497        -0.143945
 C         1.268071        -0.005235         0.049535
 C         2.018663         0.623638         1.211105
 C         3.353784         0.501250         0.444526
 C         3.232466        -0.895012        -0.332891
 O         4.432859        -1.493361        -0.787595
 C         1.826261        -1.463968         0.045170
 C         2.566981         0.430100        -0.847471
 O         2.850504         0.848228        -2.113414
 H        -0.672319        -0.311354         0.609117
 H        -0.378333         1.311474        -0.123595
 H        -0.403879        -0.051270        -1.113569
 H         1.753905         1.691702         1.376040
 H         1.920379         0.375299         2.262231
 H         4.381322         0.926320         0.575148
 H         4.497863        -1.387801        -1.690937
 H         1.350371        -2.033247        -0.758000
 H         1.722354        -1.978721         1.034405
 H         2.697523         1.772978        -2.170804
