19
Iteration:  3512
 C        -0.131960         0.314252        -0.288831
 C         1.354400        -0.009126        -0.024267
 C         2.091430         0.674693         1.237747
 C         3.331572         0.421546         0.474227
 C         3.245179        -0.913718        -0.313485
 O         4.375059        -1.517142        -0.796426
 C         1.934952        -1.510071         0.162809
 C         2.601505         0.356391        -0.893278
 O         2.664826         1.041806        -2.066019
 H        -0.604941        -0.038168         0.658205
 H        -0.208176         1.417377        -0.483415
 H        -0.811253        -0.261688        -1.133634
 H         1.815775         1.734484         1.151346
 H         1.798755         0.148904         2.178920
 H         4.381755         0.677441         0.761696
 H         4.119722        -1.985233        -1.661001
 H         1.409650        -2.195909        -0.507951
 H         1.912506        -1.793310         1.237637
 H         3.163116         1.921736        -1.966585
