19
Iteration:  3428
 C        -0.232329         0.296373        -0.182573
 C         1.315087         0.051144        -0.003190
 C         2.054092         0.614280         1.280286
 C         3.359281         0.527368         0.541154
 C         3.288224        -0.813677        -0.294261
 O         4.381581        -1.590742        -0.811145
 C         1.885521        -1.398788        -0.013866
 C         2.704273         0.450993        -0.804596
 O         2.733671         0.788835        -2.162015
 H        -0.756174        -0.377005         0.587752
 H        -0.500048         1.312374         0.116001
 H        -0.601795         0.027167        -1.085562
 H         1.578682         1.663265         1.642448
 H         1.789208        -0.045815         2.198797
 H         4.407563         0.913204         0.601487
 H         4.536415        -1.156860        -1.766402
 H         1.557211        -2.028640        -0.912806
 H         1.571750        -1.909545         0.918704
 H         2.828480         1.719601        -2.310080
