19
Iteration:  2544charge 0 multiplicity 1
 C        -0.154740         0.311615        -0.191619
 C         1.349064        -0.031583        -0.094041
 C         2.006247         0.601838         1.216078
 C         3.427392         0.458099         0.504814
 C         3.274582        -0.824952        -0.290645
 O         4.454230        -1.575564        -0.627690
 C         1.902467        -1.464081        -0.058844
 C         2.645796         0.464343        -0.856466
 O         2.646323         1.031461        -2.125529
 H        -0.597837         0.110434         0.921960
 H        -0.511395         1.298927        -0.372075
 H        -0.555369        -0.473594        -0.937119
 H         1.670922         1.592741         1.280539
 H         1.931922        -0.092701         1.960200
 H         4.353322         0.724752         0.864702
 H         4.089411        -2.018700        -1.577825
 H         1.654178        -2.279667        -0.799983
 H         1.791564        -1.963416         0.893375
 H         1.904413         1.657894        -2.235141
