19
Iteration:   512charge 0 multiplicity 1
 C        -0.247765         0.210394        -0.047654
 C         1.270074         0.020696         0.085776
 C         2.092352         0.794845         1.185498
 C         3.366348         0.525526         0.339701
 C         3.263512        -0.865363        -0.290108
 O         4.342164        -1.491809        -0.967143
 C         1.870036        -1.363245         0.192450
 C         2.613835         0.312290        -0.898142
 O         2.823689         0.882842        -2.139570
 H        -0.707502        -0.592029         0.661128
 H        -0.520154         1.174167         0.396686
 H        -0.610011         0.095508        -1.008445
 H         1.913195         1.963140         1.339289
 H         2.174186         0.147056         2.135273
 H         4.286500         1.141836         0.355108
 H         4.737031        -2.051729        -0.297843
 H         1.506085        -2.062062        -0.453649
 H         1.635327        -1.822748         1.172607
 H         2.930266         0.164829        -2.720937
