19
Iteration:  4529charge 0 multiplicity 1
 C        -0.132789         0.235244        -0.267396
 C         1.309985        -0.042529         0.015251
 C         2.018181         0.712319         1.230993
 C         3.377174         0.603082         0.487553
 C         3.287207        -0.849068        -0.313161
 O         4.352990        -1.527060        -0.829602
 C         1.903460        -1.447347         0.046834
 C         2.626002         0.360683        -0.856642
 O         2.754977         1.017968        -2.011802
 H        -0.756425        -0.706208         0.057751
 H        -0.518987         1.243345         0.142274
 H        -0.341451         0.213591        -1.362652
 H         1.738187         1.761589         1.615471
 H         1.935324         0.281319         2.230468
 H         4.376239         0.944587         0.754710
 H         4.185885        -2.560318        -0.906434
 H         1.434610        -2.167775        -0.714417
 H         1.786881        -2.037948         0.980181
 H         2.507057         0.348279        -2.759232
