19
Iteration:   158charge 0 multiplicity 1
 C        -0.142035         0.187120         0.000375
 C         1.366188         0.002862         0.067535
 C         2.030739         0.783145         1.242857
 C         3.404405         0.516353         0.456986
 C         3.199145        -0.794193        -0.332448
 O         4.264894        -1.478243        -0.923974
 C         1.860315        -1.410335         0.158954
 C         2.639249         0.399176        -0.936612
 O         2.779422         0.833653        -2.254049
 H        -0.475984         0.309194         0.938394
 H        -0.481829         1.029759        -0.586063
 H        -0.626035        -0.779028        -0.460395
 H         1.607340         1.820403         1.209319
 H         1.861272         0.316077         2.208874
 H         4.368372         0.931356         0.561033
 H         4.623760        -2.191910        -0.236224
 H         1.399024        -2.111777        -0.608647
 H         1.749448        -1.925398         1.124349
 H         3.704269         0.741065        -2.513446
