19
Iteration:   722
 C        -0.207920         0.179434        -0.017111
 C         1.279859        -0.010058         0.065210
 C         2.093970         0.802356         1.182419
 C         3.332848         0.621353         0.330990
 C         3.192802        -0.890536        -0.240472
 O         4.296183        -1.506121        -0.918804
 C         1.913102        -1.462003         0.163215
 C         2.622827         0.382856        -0.931557
 O         2.830302         0.914478        -2.148135
 H        -0.678296        -0.526951         0.765937
 H        -0.569956         1.155707         0.243189
 H        -0.608542        -0.062315        -1.001012
 H         1.749743         1.849975         1.230091
 H         2.251382         0.340429         2.139097
 H         4.262427         1.118838         0.523168
 H         5.108675        -1.804689        -0.435312
 H         1.500977        -2.037164        -0.605715
 H         1.867788        -2.177810         1.042494
 H         3.096393         0.166854        -2.777370
