19
Iteration:  4522charge 0 multiplicity 1
 C        -0.159017         0.233436        -0.305299
 C         1.313597        -0.019245         0.074033
 C         2.025654         0.694413         1.271606
 C         3.356010         0.643323         0.456699
 C         3.262355        -0.859749        -0.260200
 O         4.354921        -1.536510        -0.870623
 C         1.924854        -1.411587         0.048808
 C         2.591014         0.317367        -0.867739
 O         2.770149         0.981165        -1.977232
 H        -0.707445        -0.562246         0.028179
 H        -0.531828         1.230547        -0.002967
 H        -0.188759         0.193402        -1.390810
 H         1.666482         1.749343         1.228015
 H         2.116345         0.014951         2.275911
 H         4.337254         0.993585         0.734588
 H         4.130585        -2.513645        -1.006366
 H         1.545314        -2.029196        -0.812599
 H         1.986401        -1.952415         1.020688
 H         2.612272         0.625564        -2.821558
