19
Iteration:  1150
 C        -0.063228         0.292575        -0.249303
 C         1.356827        -0.084580         0.132020
 C         2.049650         0.746166         1.274033
 C         3.291023         0.599772         0.386243
 C         3.300238        -0.807596        -0.310259
 O         4.423306        -1.415083        -0.870568
 C         1.992931        -1.538349         0.199914
 C         2.554108         0.324748        -0.865447
 O         2.503726         0.722091        -2.142784
 H        -0.836277         0.151688         0.572465
 H        -0.040779         1.403008        -0.430284
 H        -0.532774        -0.252435        -1.118822
 H         1.784575         1.780484         1.440494
 H         1.891970         0.158318         2.204095
 H         4.312664         1.072736         0.596707
 H         4.869293        -0.769146        -1.296512
 H         1.621370        -2.162965        -0.572631
 H         1.944045        -2.159033         1.092142
 H         3.105089         1.489352        -2.386596
