19
Iteration:  4182charge 0 multiplicity 1
 C        -0.049559         0.230466        -0.366742
 C         1.373719        -0.074320        -0.005157
 C         2.123713         0.716132         1.174225
 C         3.373134         0.413703         0.448141
 C         3.258311        -0.908557        -0.335759
 O         4.371781        -1.639816        -0.658354
 C         1.889859        -1.454486         0.133161
 C         2.600221         0.382302        -0.868635
 O         2.526166         1.155039        -2.057939
 H        -0.621637         0.201658         0.607349
 H        -0.135581         1.224865        -0.748637
 H        -0.482541        -0.341894        -1.181208
 H         1.968672         1.805431         1.510612
 H         1.831578         0.257911         2.198446
 H         4.373927         0.696183         0.626834
 H         4.476421        -1.776991        -1.579850
 H         1.436551        -2.154440        -0.615180
 H         1.816233        -1.828903         1.182807
 H         2.870422         2.033978        -1.992360
