19
Iteration:   619
 C        -0.034922         0.355956        -0.338045
 C         1.380647        -0.063188         0.166734
 C         2.166269         0.742254         1.225343
 C         3.332029         0.563386         0.350205
 C         3.217265        -0.927788        -0.386819
 O         4.423975        -1.571095        -0.816809
 C         1.960347        -1.551332         0.229425
 C         2.577789         0.344954        -0.895220
 O         2.434389         1.017939        -2.074782
 H        -0.724605         0.564388         0.507677
 H         0.205065         1.368595        -0.769594
 H        -0.536119        -0.253238        -1.102203
 H         1.861199         1.725920         1.251966
 H         2.028147         0.390745         2.247165
 H         4.396368         0.907483         0.529299
 H         5.097477        -1.781723         0.016501
 H         1.321895        -2.120000        -0.523672
 H         1.966746        -1.838312         1.277424
 H         2.188392         0.344673        -2.697392
