19
Iteration:  2821
 C        -0.143590         0.296511        -0.217272
 C         1.330155        -0.035910         0.034665
 C         1.954641         0.742469         1.204672
 C         3.385293         0.441916         0.484561
 C         3.245413        -0.911937        -0.332253
 O         4.418508        -1.497284        -0.846831
 C         1.890400        -1.505665         0.135942
 C         2.572477         0.263302        -0.848485
 O         2.755702         0.993525        -2.099502
 H        -0.869645        -0.381537         0.239932
 H        -0.330007         1.257566         0.255931
 H        -0.439043         0.282234        -1.202564
 H         1.663716         1.870339         1.191786
 H         1.732114         0.411523         2.301440
 H         4.422185         0.771055         0.579203
 H         4.545621        -1.325371        -1.721137
 H         1.624341        -2.174575        -0.661568
 H         1.743018        -1.963154         1.132400
 H         3.043756         1.844461        -1.822547
