19
Iteration:   806
 C         0.022389         0.266688        -0.328234
 C         1.390023        -0.009930         0.136282
 C         2.121144         0.767912         1.321945
 C         3.404972         0.519733         0.421179
 C         3.252106        -0.821573        -0.358802
 O         4.338296        -1.575551        -0.812593
 C         1.990157        -1.505470         0.172210
 C         2.501360         0.354514        -0.886013
 O         2.380831         0.955760        -2.151201
 H        -0.810784         0.240549         0.467629
 H         0.022805         1.273943        -0.739614
 H        -0.295999        -0.371590        -1.118081
 H         1.885317         1.817087         1.407389
 H         1.949225         0.336857         2.403421
 H         4.381757         0.797624         0.665059
 H         5.053861        -1.537581        -0.312237
 H         1.611100        -2.060496        -0.754440
 H         2.123830        -2.063373         1.111651
 H         3.107822         0.650679        -2.760174
