19
Iteration:  3139charge 0 multiplicity 1
 C        -0.077941         0.226608        -0.384602
 C         1.415158        -0.001838        -0.014230
 C         2.096316         0.700537         1.251146
 C         3.385045         0.436992         0.418393
 C         3.220547        -0.936902        -0.328628
 O         4.377353        -1.622948        -0.643470
 C         1.900641        -1.514596         0.188786
 C         2.638845         0.418635        -0.904864
 O         2.520452         1.174983        -2.114868
 H        -0.710219        -0.092608         0.589635
 H        -0.323337         1.264493        -0.776078
 H        -0.477280        -0.416206        -1.141566
 H         1.847651         1.812801         1.492469
 H         1.958559         0.083218         2.178819
 H         4.448049         0.538958         0.676651
 H         4.458692        -1.836781        -1.656383
 H         1.410509        -2.130989        -0.553629
 H         1.944275        -2.057094         1.209572
 H         2.869629         2.079350        -1.900578
