19
Iteration:  2535
 C        -0.166377         0.306876        -0.204243
 C         1.361199        -0.037830        -0.083085
 C         2.017379         0.552154         1.199925
 C         3.376231         0.451149         0.555396
 C         3.274292        -0.801257        -0.363900
 O         4.420355        -1.549570        -0.627745
 C         1.928819        -1.490109         0.024075
 C         2.657456         0.447885        -0.901504
 O         2.662971         1.035225        -2.165303
 H        -0.577651         0.164587         0.912959
 H        -0.337110         1.355569        -0.548059
 H        -0.865343        -0.332612        -0.796292
 H         1.739127         1.507827         1.533457
 H         1.834395        -0.055011         2.122119
 H         4.318077         0.837472         0.785017
 H         4.223109        -2.061458        -1.571927
 H         1.694443        -2.212690        -0.807395
 H         1.857369        -1.942906         1.056370
 H         2.139719         1.853206        -2.024270
