19
Iteration:  1075
 C        -0.137891         0.030914        -0.084958
 C         1.341283        -0.023166         0.054965
 C         2.108429         0.803962         1.125131
 C         3.300863         0.582384         0.305439
 C         3.225022        -0.925549        -0.392208
 O         4.416641        -1.548695        -0.688357
 C         1.998693        -1.485854         0.188913
 C         2.552786         0.385394        -0.948977
 O         2.663947         1.173058        -2.097472
 H        -0.710975        -0.450455         0.640829
 H        -0.361317         1.123071         0.043370
 H        -0.566046        -0.112974        -1.126740
 H         1.637840         1.880295         0.936208
 H         2.212471         0.448972         2.162294
 H         4.336272         0.907731         0.427530
 H         4.193879        -2.559719        -0.779521
 H         1.491911        -2.214420        -0.457073
 H         2.039801        -1.924729         1.207692
 H         2.508524         0.538737        -2.765073
