19
Iteration:  2374charge 0 multiplicity 1
 C        -0.074683         0.305899        -0.188606
 C         1.358813        -0.080503        -0.077153
 C         2.007729         0.583141         1.224758
 C         3.329284         0.362081         0.481385
 C         3.218986        -0.881933        -0.368141
 O         4.445689        -1.459233        -0.698677
 C         1.887626        -1.544585         0.000216
 C         2.627220         0.461757        -0.868725
 O         2.702508         1.078974        -2.069570
 H        -0.688601        -0.103934         0.634033
 H        -0.189489         1.507823        -0.215130
 H        -0.511143         0.011952        -1.155557
 H         1.794466         1.686509         1.205100
 H         1.709791         0.278781         2.247576
 H         4.223840         0.857077         0.643734
 H         4.376329        -2.330304        -1.176967
 H         1.555069        -2.234040        -0.725369
 H         1.821543        -1.871875         1.038655
 H         2.025021         1.841023        -1.954531
