19
Iteration:  4988charge 0 multiplicity 1
 C        -0.103054         0.353400        -0.474086
 C         1.329257        -0.031557         0.098353
 C         2.065868         0.618142         1.274312
 C         3.372028         0.434994         0.503193
 C         3.200333        -0.882873        -0.297430
 O         4.373618        -1.590099        -0.798234
 C         1.955164        -1.451398         0.224212
 C         2.596735         0.329858        -0.854074
 O         2.638535         1.010722        -2.101113
 H        -0.998680        -0.078739         0.152774
 H        -0.219170         1.465417        -0.502928
 H        -0.169103         0.069113        -1.561519
 H         2.009222         1.661402         1.212881
 H         1.900698         0.149853         2.232756
 H         4.292541         0.978969         0.650679
 H         4.479633        -1.378231        -1.741879
 H         1.424572        -2.212716        -0.368712
 H         1.908044        -1.787454         1.293826
 H         2.917418         1.973384        -1.971572
