19
Iteration:  3770
 C        -0.001231         0.237691        -0.308239
 C         1.343592        -0.044596         0.055820
 C         2.158595         0.691998         1.254308
 C         3.385526         0.516105         0.313738
 C         3.222926        -0.898314        -0.325445
 O         4.379490        -1.667957        -0.539070
 C         1.866462        -1.548438         0.043177
 C         2.599645         0.394788        -0.907638
 O         2.483643         1.219195        -2.101380
 H        -0.700703        -0.415747         0.231165
 H        -0.235266         1.349767        -0.359251
 H        -0.227110        -0.236741        -1.259648
 H         1.909500         1.775241         1.343076
 H         2.278443         0.071296         2.175959
 H         4.411433         0.825577         0.444300
 H         4.219945        -2.147117        -1.331484
 H         1.448647        -1.961386        -0.864113
 H         1.677790        -2.133793         0.937357
 H         3.231110         1.894791        -1.874789
