19
Iteration:  1996
 C        -0.075827         0.113963        -0.318839
 C         1.368846        -0.004856         0.094045
 C         2.062310         0.676362         1.218816
 C         3.369498         0.562928         0.498093
 C         3.243054        -0.774605        -0.349288
 O         4.340651        -1.709761        -0.780089
 C         1.982724        -1.465259         0.023450
 C         2.596543         0.445468        -0.820948
 O         2.677538         1.109567        -2.066482
 H        -0.692333        -0.586879         0.306171
 H        -0.463700         1.140759        -0.155750
 H        -0.348998        -0.166525        -1.369509
 H         1.755053         1.700577         1.348574
 H         1.897358         0.383819         2.273158
 H         4.361194         1.120459         0.740895
 H         3.857688        -2.370279        -1.212007
 H         1.449629        -1.971996        -0.846508
 H         1.938525        -2.215297         0.845853
 H         2.136111         1.950980        -1.833329
