19
Iteration:   929
 C        -0.171573         0.213417        -0.119501
 C         1.331764        -0.041741         0.111207
 C         2.152830         0.748015         1.235707
 C         3.325039         0.560780         0.365607
 C         3.162568        -0.795138        -0.347873
 O         4.313083        -1.566934        -0.822894
 C         1.971302        -1.504217         0.093137
 C         2.645721         0.396579        -0.900395
 O         2.718542         0.855385        -2.159584
 H        -0.908715        -0.129565         0.694675
 H        -0.363031         1.255654        -0.128929
 H        -0.458526        -0.092710        -1.062010
 H         1.927354         1.819552         1.143432
 H         2.053323         0.510446         2.390174
 H         4.383486         0.965973         0.603750
 H         5.208531        -1.000285        -0.554472
 H         1.562540        -2.116024        -0.666595
 H         2.017258        -1.995842         1.070381
 H         1.798131         1.253666        -2.338520
