19
Iteration:   721charge 0 multiplicity 1
 C        -0.212730         0.176614        -0.018412
 C         1.276845        -0.003816         0.062233
 C         2.090761         0.800657         1.181132
 C         3.344919         0.625522         0.322044
 C         3.194595        -0.897818        -0.235028
 O         4.288913        -1.506416        -0.915816
 C         1.913926        -1.460096         0.160870
 C         2.620912         0.375610        -0.927269
 O         2.831413         0.920688        -2.152440
 H        -0.673831        -0.542572         0.791018
 H        -0.589559         1.142609         0.243826
 H        -0.566663        -0.069636        -0.981089
 H         1.786603         1.814417         1.256100
 H         2.247666         0.349584         2.145942
 H         4.239611         1.136529         0.518361
 H         5.167097        -1.817637        -0.415198
 H         1.496292        -2.045210        -0.619485
 H         1.850848        -2.168401         1.059750
 H         3.099572         0.209488        -2.768879
