19
Iteration:   650
 C        -0.072929         0.238392        -0.239730
 C         1.390076        -0.023734         0.088972
 C         2.167823         0.763726         1.113261
 C         3.342834         0.529246         0.277931
 C         3.296917        -0.906642        -0.231401
 O         4.366489        -1.592480        -0.794377
 C         1.964897        -1.467804         0.199290
 C         2.504997         0.262029        -0.920867
 O         2.566034         1.108094        -2.027934
 H        -0.671541         0.299222         0.603529
 H        -0.208294         1.315702        -0.579834
 H        -0.636504        -0.379242        -1.051752
 H         2.009128         1.865493         1.020879
 H         2.015812         0.397758         2.150627
 H         4.338420         1.050140         0.343421
 H         4.827992        -2.033181        -0.131300
 H         1.473832        -2.252346        -0.525691
 H         1.695139        -1.896560         1.136431
 H         1.840749         0.672496        -2.564244
