19
Iteration:   746
 C        -0.100948         0.288278        -0.049520
 C         1.296557        -0.027103         0.119522
 C         1.980944         0.732351         1.259915
 C         3.418146         0.526376         0.449128
 C         3.193765        -0.861569        -0.344964
 O         4.325390        -1.374268        -0.933359
 C         1.978797        -1.457896         0.118464
 C         2.527191         0.378873        -0.902713
 O         2.769571         0.786278        -2.199530
 H        -0.741276        -0.235554         0.633420
 H        -0.348853         1.362889         0.061421
 H        -0.331812        -0.003541        -1.165673
 H         1.839468         1.876740         1.027278
 H         1.843062         0.469904         2.311942
 H         4.333089         1.209093         0.625584
 H         4.882720        -2.077061        -0.313259
 H         1.505097        -2.175129        -0.524082
 H         1.961453        -1.975710         1.090459
 H         2.740105         0.038668        -2.733211
