19
Iteration:  4149charge 0 multiplicity 1
 C        -0.113634         0.279085        -0.345834
 C         1.309722        -0.109650         0.113753
 C         2.081661         0.812770         1.210081
 C         3.341402         0.592643         0.449365
 C         3.216357        -0.917258        -0.337695
 O         4.335519        -1.651581        -0.833305
 C         1.939756        -1.540334         0.154086
 C         2.589185         0.348656        -0.839635
 O         2.707201         1.008354        -2.034292
 H        -0.870271        -0.287674         0.223330
 H        -0.146148         1.337443        -0.272887
 H        -0.320376        -0.118278        -1.337776
 H         1.762949         2.000998         1.217967
 H         1.909448         0.268518         2.246549
 H         4.331967         0.993882         0.638668
 H         4.591132        -1.109513        -1.577141
 H         1.451136        -2.127652        -0.673507
 H         1.846053        -2.073001         1.117359
 H         3.122306         1.833649        -1.851829
