19
Iteration:  1532charge 0 multiplicity 1
 C        -0.083237         0.267300        -0.230368
 C         1.333875        -0.051597         0.062767
 C         2.055817         0.628130         1.280846
 C         3.379225         0.590618         0.543126
 C         3.252338        -0.764725        -0.288153
 O         4.323819        -1.464172        -0.877040
 C         1.953422        -1.512860         0.022421
 C         2.515156         0.445860        -0.847123
 O         2.686803         0.759496        -2.166126
 H        -0.756220         0.025194         0.784943
 H        -0.228649         1.275612        -0.576314
 H        -0.437881        -0.400976        -1.012844
 H         1.710526         1.579518         1.629711
 H         2.201519        -0.047450         2.211849
 H         4.225773         1.104062         0.883304
 H         5.157584        -0.896392        -0.853848
 H         1.569967        -2.054455        -0.831416
 H         1.971928        -2.185617         0.887486
 H         2.270930         1.663971        -2.266320
