19
Iteration:  2893
 C        -0.094759         0.241664        -0.226516
 C         1.380223        -0.063727         0.024881
 C         2.073442         0.595338         1.350302
 C         3.378722         0.620908         0.468530
 C         3.275795        -0.784429        -0.282836
 O         4.357886        -1.609655        -0.739473
 C         1.920736        -1.444048        -0.072126
 C         2.596078         0.516323        -0.814616
 O         2.643704         0.920103        -2.157555
 H        -0.757957         0.111663         0.708603
 H        -0.212044         1.333325        -0.564795
 H        -0.581893        -0.531018        -1.009498
 H         1.547972         1.528734         1.394982
 H         1.986330         0.015043         2.212622
 H         4.363655         0.940138         0.627029
 H         3.871948        -2.296377        -1.029613
 H         1.556290        -1.835408        -1.079766
 H         1.694221        -2.198999         0.701836
 H         2.886992         1.811319        -2.281821
