19
Iteration:  2579
 C        -0.088352         0.231458        -0.276453
 C         1.274717        -0.032523         0.117458
 C         2.160431         0.729891         1.328709
 C         3.371406         0.501056         0.413085
 C         3.224078        -0.900033        -0.340915
 O         4.391753        -1.503643        -0.643677
 C         1.848800        -1.555698        -0.070958
 C         2.567216         0.371875        -0.899051
 O         2.730007         1.084635        -2.050056
 H        -0.861801        -0.490595         0.259938
 H        -0.373264         1.316897        -0.248469
 H        -0.189437        -0.029728        -1.346908
 H         1.736459         1.677736         1.413325
 H         2.146372         0.431911         2.342454
 H         4.425751         0.803118         0.491685
 H         4.517001        -1.877887        -1.577371
 H         1.311852        -1.967283        -0.941847
 H         1.774095        -2.162018         0.845018
 H         2.009859         0.885673        -2.691041
