19
Iteration:  1292charge 0 multiplicity 1
 C        -0.191802         0.165408        -0.187711
 C         1.332306        -0.081034         0.047078
 C         2.103390         0.775995         1.162885
 C         3.371599         0.542374         0.436160
 C         3.250977        -0.824102        -0.309630
 O         4.394349        -1.385677        -0.883527
 C         1.991699        -1.505619         0.203254
 C         2.599434         0.358264        -0.879549
 O         2.644231         0.875368        -2.153515
 H        -0.772563        -0.423029         0.515756
 H        -0.475352         1.203308         0.039221
 H        -0.575169        -0.230755        -1.141011
 H         1.687958         1.719754         1.235589
 H         1.990587         0.217378         2.148365
 H         4.363453         1.156670         0.341938
 H         4.835241        -2.179888        -0.256737
 H         1.492414        -2.190352        -0.492124
 H         1.908148        -2.013930         1.220628
 H         2.179176         1.761954        -2.005884
