19
Iteration:  1156charge 0 multiplicity 1
 C        -0.053670         0.295162        -0.278744
 C         1.335166        -0.089209         0.147603
 C         2.026220         0.732049         1.263826
 C         3.323121         0.568227         0.368545
 C         3.324454        -0.771843        -0.256878
 O         4.443544        -1.434584        -0.881372
 C         1.976636        -1.514446         0.198818
 C         2.514116         0.288775        -0.861564
 O         2.486410         0.752518        -2.147691
 H        -0.678096         0.232622         0.641479
 H         0.059745         1.357215        -0.376149
 H        -0.535078        -0.176235        -1.091528
 H         1.585936         1.760350         1.462805
 H         2.017633         0.228796         2.249442
 H         4.205249         1.088314         0.446729
 H         5.061246        -0.697954        -1.429067
 H         1.616257        -2.209239        -0.647991
 H         1.955115        -2.092731         1.173222
 H         3.207883         1.333676        -2.250144
