19
Iteration:  3452charge 0 multiplicity 1
 C        -0.098265         0.205327        -0.222526
 C         1.359353         0.048308         0.069797
 C         2.067375         0.629726         1.266505
 C         3.355802         0.499060         0.552764
 C         3.261792        -0.799964        -0.270660
 O         4.212159        -1.547823        -0.899674
 C         1.907643        -1.417615         0.051447
 C         2.590020         0.482966        -0.818499
 O         2.839084         0.795604        -2.145720
 H        -0.806733        -0.128016         0.562149
 H        -0.364637         1.230196        -0.422134
 H        -0.279475        -0.369967        -1.076079
 H         1.691007         1.765706         1.541916
 H         1.720803         0.130720         2.227610
 H         4.316600         0.970975         0.830695
 H         4.481406        -1.077479        -1.625840
 H         1.497779        -1.954211        -0.845518
 H         1.714799        -2.013373         0.990769
 H         2.626762         1.726416        -2.308222
