19
Iteration:  1394charge 0 multiplicity 1
 C        -0.114536         0.114213        -0.145482
 C         1.301878        -0.083440         0.086646
 C         2.071821         0.768172         1.187185
 C         3.340420         0.506457         0.356023
 C         3.220828        -0.892479        -0.422423
 O         4.487362        -1.402456        -0.771119
 C         1.980159        -1.522243         0.156942
 C         2.504861         0.333605        -0.915463
 O         2.627237         0.999992        -2.123586
 H        -0.772985        -0.145036         0.639648
 H        -0.149910         1.273327        -0.238743
 H        -0.489380        -0.111429        -1.224026
 H         1.977358         1.897534         1.175303
 H         1.989688         0.475238         2.214376
 H         4.296340         0.948603         0.475730
 H         4.465039        -2.381023        -0.355669
 H         1.379660        -2.138207        -0.551578
 H         2.048993        -1.985486         1.154039
 H         2.495671         1.942375        -1.928204
