19
Iteration:   743
 C        -0.114960         0.270347        -0.053976
 C         1.303107        -0.045431         0.127120
 C         1.982146         0.753922         1.251733
 C         3.416851         0.548204         0.445652
 C         3.206971        -0.836351        -0.369899
 O         4.324736        -1.402039        -0.934530
 C         1.969820        -1.460333         0.106752
 C         2.519473         0.367425        -0.883810
 O         2.792524         0.798510        -2.197932
 H        -0.789967        -0.269981         0.752088
 H        -0.313649         1.304933         0.125829
 H        -0.311731         0.064945        -1.063056
 H         1.837322         1.775356         1.066061
 H         1.799414         0.551288         2.288245
 H         4.322895         1.097994         0.618784
 H         4.739833        -1.882738        -0.321922
 H         1.505815        -2.163363        -0.533285
 H         1.889123        -1.937723         1.165847
 H         2.781641        -0.023864        -2.778544
