19
Iteration:  3759
 C        -0.090985         0.197278        -0.294995
 C         1.391592         0.011107         0.069351
 C         2.214084         0.608468         1.208495
 C         3.367202         0.499500         0.323487
 C         3.209691        -0.929111        -0.390940
 O         4.423493        -1.613859        -0.514022
 C         1.816797        -1.439732        -0.021284
 C         2.582037         0.419573        -0.927537
 O         2.530813         1.131064        -2.037106
 H        -0.787676        -0.175319         0.436707
 H        -0.364548         1.308504        -0.274598
 H        -0.169453        -0.040462        -1.329129
 H         1.864522         1.618349         1.466232
 H         2.203850         0.055732         2.167037
 H         4.332949         0.969949         0.448474
 H         4.285248        -2.276370        -1.128717
 H         1.276550        -2.064146        -0.698388
 H         1.829214        -1.979000         0.927843
 H         3.109923         1.932161        -2.094364
