19
Iteration:  2232charge 0 multiplicity 1
 C        -0.164177         0.167045        -0.309472
 C         1.367849         0.034563         0.019938
 C         2.145322         0.544834         1.300589
 C         3.419787         0.430593         0.408209
 C         3.260602        -0.899829        -0.383214
 O         4.380892        -1.715805        -0.622124
 C         1.910269        -1.381804        -0.029052
 C         2.596794         0.529849        -0.911755
 O         2.545390         1.132874        -2.106638
 H        -0.720080        -0.552456         0.269532
 H        -0.582021         1.153797        -0.252254
 H        -0.309553        -0.042303        -1.361153
 H         1.871784         1.610443         1.525236
 H         1.970762         0.022679         2.203023
 H         4.342193         0.917825         0.935503
 H         5.086859        -1.202803        -0.465956
 H         1.417149        -1.963226        -0.753696
 H         2.030371        -1.824780         0.986225
 H         2.369475         2.126606        -1.878875
