19
Iteration:  3095charge 0 multiplicity 1
 C        -0.083273         0.272944        -0.263392
 C         1.317912        -0.001076         0.088853
 C         2.081556         0.690849         1.273997
 C         3.355097         0.563996         0.449148
 C         3.216642        -0.878180        -0.327809
 O         4.411802        -1.606874        -0.654098
 C         1.912683        -1.572434        -0.038597
 C         2.609131         0.394546        -0.873971
 O         2.633927         1.004032        -2.125163
 H        -0.747872         0.287361         0.749139
 H        -0.171339         1.317120        -0.699701
 H        -0.604457        -0.455237        -0.893484
 H         1.819337         1.709775         1.641294
 H         2.059912         0.155871         2.144237
 H         4.252625         1.128751         0.494394
 H         4.249753        -1.779407        -1.693192
 H         1.457844        -1.899698        -0.972251
 H         1.738992        -2.341351         0.783985
 H         3.035852         1.897738        -2.083220
