19
Iteration:  4261
 C        -0.197781         0.333639        -0.164967
 C         1.362984         0.011379        -0.018372
 C         2.051327         0.635263         1.212438
 C         3.302973         0.434888         0.458837
 C         3.275893        -0.869878        -0.275445
 O         4.448529        -1.480647        -0.755561
 C         1.872827        -1.457909         0.037931
 C         2.606961         0.357863        -0.862948
 O         2.783222         0.907269        -2.124475
 H        -0.734298         0.045823         0.822995
 H        -0.405792         1.379276        -0.069243
 H        -0.818403        -0.095580        -0.914402
 H         1.806452         1.720536         1.045287
 H         1.821264        -0.045523         2.000448
 H         4.200473         0.919706         0.866477
 H         4.165163        -1.855220        -1.698678
 H         1.396663        -2.056135        -0.756137
 H         1.730426        -2.026027         1.005444
 H         2.579381         1.869040        -2.175634
