19
Iteration:  2913
 C        -0.095670         0.279924        -0.255324
 C         1.326144         0.030808        -0.005587
 C         2.072304         0.645942         1.225482
 C         3.375177         0.405651         0.541087
 C         3.232302        -0.868372        -0.359769
 O         4.378385        -1.509105        -0.718190
 C         1.995604        -1.463356         0.032490
 C         2.625048         0.393483        -0.889469
 O         2.572763         0.997434        -2.115150
 H        -0.666075         0.239200         0.662265
 H        -0.194643         1.360503        -0.636972
 H        -0.465540        -0.596625        -0.902589
 H         1.901047         1.650866         1.489102
 H         1.791477         0.092177         2.140973
 H         4.274489         0.870986         0.824133
 H         4.142677        -2.323859        -1.231503
 H         1.585539        -2.132961        -0.746704
 H         1.963982        -1.976655         1.004482
 H         2.815265         1.944971        -2.043355
