19
Iteration:  2219charge 0 multiplicity 1
 C        -0.137930         0.146137        -0.326322
 C         1.375157         0.097332         0.020523
 C         2.149686         0.635246         1.311240
 C         3.413323         0.433235         0.470504
 C         3.275925        -0.834579        -0.401847
 O         4.357819        -1.710130        -0.602530
 C         1.873893        -1.434050        -0.088052
 C         2.646082         0.420133        -0.858182
 O         2.537250         1.147694        -2.090866
 H        -0.579845        -0.591995         0.283297
 H        -0.735927         1.109745         0.015264
 H        -0.297653        -0.177912        -1.348093
 H         1.994420         1.695977         1.465437
 H         2.114852         0.003523         2.155946
 H         4.531236         0.741504         0.400749
 H         5.287774        -1.217164        -0.409694
 H         1.481187        -1.851796        -1.019789
 H         1.568042        -2.123879         0.704274
 H         1.897035         1.877242        -1.989929
