19
Iteration:  3443
 C        -0.106060         0.238813        -0.194495
 C         1.339282         0.078482        -0.001659
 C         1.986089         0.592198         1.275642
 C         3.390133         0.526572         0.557061
 C         3.265117        -0.821092        -0.224804
 O         4.329762        -1.622609        -0.921415
 C         1.857533        -1.383003         0.051397
 C         2.568360         0.565094        -0.813840
 O         2.796436         0.773481        -2.155993
 H        -0.612534        -0.322157         0.573090
 H        -0.447813         1.265094        -0.277017
 H        -0.562180        -0.303109        -1.128486
 H         1.873063         1.719221         1.477732
 H         2.030379         0.039484         2.219751
 H         4.196251         0.979395         1.093956
 H         4.582293        -1.164458        -1.657563
 H         1.537860        -1.920736        -0.821842
 H         1.819800        -1.968206         1.003375
 H         2.698569         1.716175        -2.343451
