19
Iteration:  2208
 C        -0.037238         0.129583        -0.259587
 C         1.356347        -0.010927         0.045505
 C         2.154656         0.700004         1.234206
 C         3.404546         0.493066         0.440206
 C         3.231811        -0.880925        -0.293506
 O         4.310680        -1.687130        -0.642443
 C         1.846103        -1.464680        -0.156376
 C         2.625607         0.418293        -0.908173
 O         2.589471         1.147189        -2.024237
 H        -0.585239        -0.585979         0.268548
 H        -0.375514         1.246398        -0.083861
 H        -0.234282         0.036039        -1.320341
 H         1.944984         1.737070         1.495935
 H         2.064500         0.187665         2.163000
 H         4.468588         0.975017         0.637724
 H         5.106838        -1.047668        -0.403379
 H         1.565087        -1.721824        -1.173737
 H         1.668193        -2.252523         0.579921
 H         1.727755         1.475816        -2.025488
