19
Iteration:  1326charge 0 multiplicity 1
 C        -0.088892         0.128272        -0.214743
 C         1.392744        -0.017195         0.141745
 C         2.082657         0.740960         1.397507
 C         3.343394         0.659790         0.511443
 C         3.246478        -0.789494        -0.309863
 O         4.303287        -1.408402        -0.934143
 C         1.922937        -1.487882         0.035862
 C         2.591292         0.454390        -0.843622
 O         2.658842         0.635804        -2.190180
 H        -0.701638        -0.094634         0.588784
 H        -0.366269         1.193765        -0.532475
 H        -0.439503        -0.379261        -1.176641
 H         1.657014         1.664256         1.679845
 H         1.982181         0.015556         2.248186
 H         4.326816         1.168364         0.618127
 H         5.164527        -0.853828        -0.791374
 H         1.452360        -1.860710        -0.880258
 H         1.938971        -2.207393         0.914634
 H         2.439637         1.469357        -2.607134
