19
Iteration:  4046
 C        -0.117152         0.361352        -0.170575
 C         1.320112        -0.005678         0.067219
 C         2.015934         0.606216         1.282613
 C         3.311312         0.499046         0.485521
 C         3.226762        -0.904636        -0.366777
 O         4.463428        -1.459698        -0.662837
 C         1.865221        -1.555012         0.050534
 C         2.578270         0.327434        -0.961037
 O         2.724560         0.962109        -2.219885
 H        -0.620858         0.277440         0.757463
 H        -0.314452         1.504589        -0.355975
 H        -0.514917        -0.141392        -1.086690
 H         1.735151         1.715588         1.403926
 H         2.011960        -0.073984         2.151021
 H         4.251459         0.961471         0.684152
 H         4.392962        -1.828653        -1.559334
 H         1.436614        -2.154770        -0.764941
 H         1.910605        -2.144702         0.975091
 H         3.037890         1.925792        -2.035806
