19
Iteration:  2095charge 0 multiplicity 1
 C        -0.136217         0.310106        -0.199818
 C         1.377588        -0.008862        -0.017738
 C         1.982968         0.547534         1.256221
 C         3.345513         0.500679         0.558946
 C         3.293192        -0.849696        -0.239162
 O         4.385682        -1.473640        -0.894349
 C         1.927815        -1.432648        -0.008731
 C         2.691755         0.491949        -0.828797
 O         2.604854         0.950234        -2.052522
 H        -0.577218         0.057126         0.790851
 H        -0.440904         1.317653        -0.675841
 H        -0.637784        -0.346850        -0.962272
 H         1.777926         1.590136         1.353371
 H         1.857703        -0.031244         2.199581
 H         4.275013         0.767419         0.935727
 H         4.055719        -2.360167        -1.168319
 H         1.554362        -1.834178        -0.989278
 H         1.924273        -2.077150         0.856529
 H         3.309373         0.623689        -2.743067
