19
Iteration:  1320charge 0 multiplicity 1
 C        -0.056443         0.154366        -0.227065
 C         1.353622        -0.026439         0.146490
 C         2.117521         0.729491         1.356238
 C         3.271364         0.614652         0.501986
 C         3.253474        -0.792339        -0.272671
 O         4.305312        -1.406810        -0.952199
 C         1.949234        -1.458518         0.040464
 C         2.568165         0.466250        -0.848022
 O         2.680242         0.648963        -2.195144
 H        -0.740750        -0.245774         0.635685
 H        -0.459377         1.166608        -0.380636
 H        -0.298435        -0.521545        -1.070298
 H         1.656704         1.794138         1.470360
 H         2.217474         0.161428         2.284975
 H         4.239321         1.085721         0.646899
 H         5.283155        -1.095206        -0.590215
 H         1.519870        -1.905090        -0.878926
 H         1.817871        -2.111775         0.889975
 H         2.247698         1.569219        -2.331544
