19
Iteration:  1126charge 0 multiplicity 1
 C        -0.085975         0.149274        -0.243718
 C         1.373961        -0.013534         0.149857
 C         2.095274         0.760587         1.285116
 C         3.404885         0.599559         0.438622
 C         3.237760        -0.788766        -0.348412
 O         4.371217        -1.443845        -0.768171
 C         1.897869        -1.486946         0.132461
 C         2.599244         0.389215        -0.890492
 O         2.611744         0.758803        -2.228860
 H        -0.669158        -0.226602         0.723205
 H        -0.375422         1.184495        -0.297673
 H        -0.470143        -0.419906        -1.056556
 H         1.628390         1.669289         1.409767
 H         2.085036         0.212205         2.271607
 H         4.376639         0.904139         0.656969
 H         4.724959        -0.975650        -1.630563
 H         1.469780        -2.238226        -0.539327
 H         1.972326        -1.988237         1.119574
 H         1.994834         1.550922        -2.293476
