19
Iteration:  1669charge 0 multiplicity 1
 C        -0.066577         0.134280        -0.341095
 C         1.384613         0.004299         0.080848
 C         2.161084         0.648395         1.341899
 C         3.382374         0.554396         0.463724
 C         3.212926        -0.853176        -0.371826
 O         4.374990        -1.582381        -0.686627
 C         1.864000        -1.429997         0.038449
 C         2.628538         0.435502        -0.877765
 O         2.552548         1.005809        -2.098302
 H        -0.793709        -0.398552         0.218764
 H        -0.439882         1.232829        -0.652280
 H        -0.129102        -0.560717        -1.280958
 H         1.806691         1.683951         1.631107
 H         2.260511         0.049226         2.221751
 H         4.315821         0.894552         0.669990
 H         4.317704        -1.526338        -1.680616
 H         1.490961        -1.968483        -0.864077
 H         1.734350        -2.058353         0.941249
 H         2.530064         1.981101        -1.953649
