19
Iteration:  4777
 C        -0.122627         0.341726        -0.316314
 C         1.308499        -0.006624         0.016986
 C         2.076212         0.610212         1.180893
 C         3.380670         0.426057         0.416308
 C         3.217793        -0.884837        -0.289064
 O         4.418890        -1.507151        -0.699000
 C         1.838481        -1.489148         0.089423
 C         2.639335         0.358584        -0.857281
 O         2.667240         1.022357        -2.067002
 H        -0.813972        -0.318447         0.183466
 H        -0.306470         1.390891        -0.009981
 H        -0.365276         0.451180        -1.414385
 H         1.820650         1.612880         1.226394
 H         2.219200         0.035195         2.092006
 H         4.334411         0.702454         0.871150
 H         4.181528        -1.971486        -1.503138
 H         1.520453        -2.250159        -0.662565
 H         1.851420        -2.118691         1.078761
 H         2.858038         1.979770        -1.799291
