19
Iteration:   131
 C        -0.195169         0.199162        -0.045977
 C         1.295993        -0.004041         0.138436
 C         2.111756         0.857114         1.192684
 C         3.348858         0.602515         0.341785
 C         3.244666        -0.814014        -0.267308
 O         4.294224        -1.508422        -0.942119
 C         1.876146        -1.491340         0.131014
 C         2.550476         0.367763        -0.940396
 O         2.841521         0.859818        -2.130482
 H        -0.783082        -0.221900         0.908406
 H        -0.470260         1.264401        -0.208304
 H        -0.496196        -0.338579        -0.871515
 H         1.804426         1.871393         1.300238
 H         2.146335         0.339998         2.172708
 H         4.400777         0.985985         0.509549
 H         4.757943        -2.057868        -0.142562
 H         1.529296        -2.032828        -0.746606
 H         1.761914        -2.127807         1.031442
 H         3.120051         0.127034        -2.709658
