19
Iteration:  1331
 C        -0.109706         0.136278        -0.225511
 C         1.391737         0.000857         0.127268
 C         2.049353         0.700473         1.400224
 C         3.410197         0.687412         0.500239
 C         3.231989        -0.765278        -0.329555
 O         4.313299        -1.408504        -0.920196
 C         1.927099        -1.494359         0.045294
 C         2.595589         0.426175        -0.808065
 O         2.646634         0.627823        -2.199333
 H        -0.807461        -0.075818         0.689492
 H        -0.227766         1.199605        -0.528554
 H        -0.447282        -0.384463        -1.132951
 H         1.645314         1.726454         1.785701
 H         1.905888         0.003830         2.219531
 H         4.382205         1.168521         0.644912
 H         5.021672        -0.771286        -0.911345
 H         1.448430        -1.930373        -0.850583
 H         1.957360        -2.208619         0.839150
 H         2.543302         1.483535        -2.669248
