19
Iteration:   847
 C        -0.085277         0.199901        -0.199584
 C         1.361218        -0.013665         0.054307
 C         2.125046         0.796320         1.143917
 C         3.369133         0.501698         0.306292
 C         3.286270        -0.879181        -0.277060
 O         4.393696        -1.699822        -0.709164
 C         1.943997        -1.441045         0.174773
 C         2.539119         0.229308        -1.001821
 O         2.447412         1.167748        -2.028942
 H        -0.585727        -0.217094         0.589263
 H        -0.335862         1.296247        -0.394836
 H        -0.538733        -0.503974        -1.001251
 H         1.757368         1.868295         1.072737
 H         2.144164         0.403066         2.184914
 H         4.326489         0.882299         0.128866
 H         5.281994        -1.025883        -0.769049
 H         1.415306        -2.171028        -0.502273
 H         1.928325        -1.881001         1.169335
 H         3.399133         1.167884        -2.379932
