19
Iteration:  2935
 C        -0.109183         0.310834        -0.332364
 C         1.287470        -0.063476         0.113134
 C         2.072524         0.636717         1.221875
 C         3.399662         0.437702         0.335757
 C         3.231428        -0.968231        -0.363676
 O         4.519226        -1.473981        -0.710520
 C         1.770789        -1.534607         0.185536
 C         2.605409         0.325616        -0.911588
 O         2.645367         1.107004        -2.063473
 H        -0.714478         0.213191         0.547884
 H        -0.172724         1.408914        -0.595742
 H        -0.449040        -0.506450        -1.036455
 H         1.879022         1.674202         1.189044
 H         2.116681         0.525667         2.309195
 H         4.381896         0.797793         0.394203
 H         4.457226        -1.803478        -1.694036
 H         1.221127        -2.209475        -0.499196
 H         1.763571        -1.958634         1.193389
 H         2.527637         2.020922        -1.711054
