19
Iteration:  3361charge 0 multiplicity 1
 C        -0.139835         0.315126        -0.297103
 C         1.374039         0.018821        -0.057589
 C         2.009552         0.633655         1.251486
 C         3.400609         0.408422         0.393786
 C         3.283265        -0.878559        -0.299220
 O         4.414607        -1.611003        -0.717405
 C         1.968885        -1.434925         0.124059
 C         2.586331         0.367093        -0.899629
 O         2.583991         1.083428        -2.072342
 H        -0.754551        -0.224684         0.445686
 H        -0.395325         1.370902        -0.145984
 H        -0.351229        -0.030665        -1.230858
 H         1.825309         1.819055         1.409694
 H         1.972186        -0.000668         2.235119
 H         4.384594         0.749602         0.609480
 H         4.125023        -2.352362        -1.134794
 H         1.585714        -2.192675        -0.633132
 H         1.886577        -1.901383         1.128558
 H         2.689425         2.077765        -1.944633
