19
Iteration:  4906
 C        -0.128855         0.342804        -0.085838
 C         1.293492        -0.073481        -0.028863
 C         2.008104         0.586448         1.105739
 C         3.318004         0.430367         0.433423
 C         3.226725        -0.890995        -0.338795
 O         4.443680        -1.468810        -0.637676
 C         1.819941        -1.431004         0.029131
 C         2.618390         0.341222        -0.963028
 O         2.853669         1.018718        -2.093657
 H        -0.728181        -0.119497         0.591561
 H        -0.395648         1.405621         0.081224
 H        -0.616243        -0.046797        -1.002438
 H         1.674774         1.500574         1.555238
 H         1.882089        -0.064736         1.971052
 H         4.339566         0.868927         0.375210
 H         4.212312        -2.217920        -1.342898
 H         1.490897        -2.058668        -0.750405
 H         1.649971        -1.759988         1.002088
 H         2.613134         2.058277        -1.905816
