19
Iteration:  3167charge 0 multiplicity 1
 C        -0.093853         0.338284        -0.299483
 C         1.292878        -0.135460         0.046090
 C         2.043876         0.706683         1.132043
 C         3.343965         0.503029         0.373276
 C         3.285042        -0.873054        -0.355289
 O         4.406201        -1.566104        -0.766883
 C         1.964837        -1.524718         0.195948
 C         2.520715         0.309329        -0.862115
 O         2.707916         1.057094        -1.965847
 H        -0.945303        -0.028494         0.233558
 H        -0.048613         1.433597        -0.242045
 H        -0.438611        -0.013867        -1.358195
 H         1.713131         1.693554         1.225022
 H         1.823872         0.501574         2.237943
 H         4.100568         1.240179         0.283656
 H         4.119308        -2.344653        -1.461399
 H         1.496594        -2.137716        -0.620972
 H         2.023641        -2.038342         1.120130
 H         2.783609         1.971985        -1.758534
