19
Iteration:  4340charge 0 multiplicity 1
 C        -0.121212         0.241991        -0.322572
 C         1.372949         0.052106         0.066114
 C         2.019047         0.715635         1.252700
 C         3.338861         0.534681         0.546141
 C         3.248550        -0.868696        -0.315598
 O         4.272246        -1.615962        -0.877171
 C         1.917020        -1.470391         0.148494
 C         2.648739         0.386368        -0.849719
 O         2.767096         0.915073        -2.101624
 H        -0.650817        -0.544714         0.221281
 H        -0.542818         1.138411        -0.131376
 H        -0.357209         0.020651        -1.347535
 H         1.752617         1.807594         1.307728
 H         1.943338         0.367491         2.309655
 H         4.344700         0.832037         0.824958
 H         4.536736        -1.120585        -1.771922
 H         1.739958        -2.224349        -0.599475
 H         1.937540        -1.970796         1.137024
 H         2.318703         1.829066        -1.901608
