19
Iteration:  4991
 C        -0.097307         0.373367        -0.481538
 C         1.322966        -0.048780         0.111058
 C         2.069507         0.613311         1.261099
 C         3.357158         0.425848         0.506364
 C         3.224505        -0.872330        -0.316113
 O         4.363435        -1.569428        -0.798376
 C         1.952377        -1.456937         0.222095
 C         2.583496         0.329758        -0.856598
 O         2.651305         1.001464        -2.096683
 H        -0.944183        -0.084012         0.172791
 H        -0.145009         1.436424        -0.486659
 H        -0.196107         0.037010        -1.468094
 H         1.995106         1.749227         1.222550
 H         1.812384         0.210950         2.272146
 H         4.343281         0.943162         0.627066
 H         4.455879        -1.370115        -1.708461
 H         1.391260        -2.221822        -0.347585
 H         1.941583        -1.810688         1.293422
 H         2.893178         1.845098        -1.913930
