19
Iteration:  4584
 C        -0.132142         0.295307        -0.222065
 C         1.283386        -0.033782        -0.012500
 C         2.083051         0.606327         1.243997
 C         3.366015         0.576405         0.330612
 C         3.247408        -0.921130        -0.330852
 O         4.407780        -1.606267        -0.683358
 C         1.833263        -1.522367        -0.028698
 C         2.575532         0.397155        -0.855197
 O         2.706401         1.137126        -2.031933
 H        -0.761290        -0.182917         0.681344
 H        -0.644984         1.319398         0.022109
 H        -0.452687        -0.033527        -1.233590
 H         1.746666         1.711224         1.297410
 H         2.156053         0.152962         2.177001
 H         4.324639         1.044126         0.423794
 H         5.150509        -1.713188         0.036705
 H         1.333580        -1.995787        -0.942253
 H         1.914934        -2.097767         0.903718
 H         3.062626         0.560761        -2.730625
