19
Iteration:  3469charge 0 multiplicity 1
 C        -0.103125         0.222864        -0.312854
 C         1.305019        -0.050961         0.124160
 C         2.066976         0.730969         1.336556
 C         3.404923         0.536533         0.465512
 C         3.132297        -0.875294        -0.295574
 O         4.225357        -1.464214        -0.904799
 C         1.849916        -1.511942         0.102102
 C         2.617869         0.388176        -0.835686
 O         2.897165         0.858635        -2.092912
 H        -0.815757        -0.072328         0.508988
 H        -0.249617         1.295150        -0.631201
 H        -0.647033        -0.479951        -1.103509
 H         1.836980         1.708364         1.454183
 H         2.306785         0.491375         2.382051
 H         4.468484         0.847261         0.591555
 H         4.399798        -1.037309        -1.678890
 H         1.543963        -2.007412        -0.825614
 H         2.040520        -2.128883         0.961156
 H         2.606640         1.809143        -2.008686
