19
Iteration:  4531charge 0 multiplicity 1
 C        -0.129193         0.222862        -0.264497
 C         1.316038        -0.035959         0.005940
 C         2.022931         0.718401         1.216789
 C         3.372669         0.581147         0.491573
 C         3.280907        -0.846052        -0.324798
 O         4.357864        -1.527232        -0.820003
 C         1.900787        -1.465420         0.054853
 C         2.638598         0.374690        -0.839766
 O         2.749984         1.029386        -2.037879
 H        -0.747024        -0.623456         0.086749
 H        -0.522079         1.217206         0.191125
 H        -0.368403         0.245799        -1.334961
 H         1.743164         1.762828         1.621848
 H         1.884513         0.250019         2.306210
 H         4.353299         0.942671         0.724154
 H         4.179270        -2.502314        -0.858534
 H         1.423468        -2.182174        -0.738747
 H         1.727273        -2.049271         0.996755
 H         2.514691         0.351318        -2.655134
