19
Iteration:   701charge 0 multiplicity 1
 C        -0.189776         0.055441        -0.035471
 C         1.331774         0.038950         0.049998
 C         2.173703         0.755535         1.191632
 C         3.394253         0.544823         0.345116
 C         3.237543        -0.767107        -0.280480
 O         4.265231        -1.611785        -0.846542
 C         1.848048        -1.345244         0.185282
 C         2.551240         0.338732        -1.003305
 O         2.800387         1.026819        -2.139866
 H        -0.665589        -0.541174         0.799365
 H        -0.654378         1.028729         0.029189
 H        -0.625074        -0.379755        -0.976712
 H         1.786182         1.840307         1.183625
 H         2.071871         0.184147         2.115101
 H         4.298993         1.069950         0.138231
 H         5.085520        -1.715928        -0.096384
 H         1.510888        -2.016663        -0.535682
 H         1.652364        -1.920638         1.139672
 H         3.064461         0.395001        -2.759478
