19
Iteration:  1381charge 0 multiplicity 1
 C        -0.126330         0.271279        -0.151761
 C         1.355009        -0.108808         0.138062
 C         2.052868         0.721302         1.174308
 C         3.286468         0.560787         0.375224
 C         3.235418        -0.866106        -0.355900
 O         4.482531        -1.338346        -0.822386
 C         1.942057        -1.544022         0.159123
 C         2.577899         0.287565        -0.905587
 O         2.655787         0.912242        -2.119704
 H        -0.747259        -0.114274         0.561154
 H        -0.357281         1.357385        -0.266756
 H        -0.400029        -0.375115        -1.048752
 H         1.525601         1.643897         1.083630
 H         2.040779         0.364224         2.222367
 H         4.254276         0.844175         0.569783
 H         4.435908        -2.294562        -1.081968
 H         1.511456        -2.275533        -0.556199
 H         2.012855        -2.037835         1.179170
 H         2.373695         1.874438        -2.098954
