19
Iteration:  3994
 C        -0.036865         0.177430        -0.402154
 C         1.354136         0.013980         0.098730
 C         2.079432         0.757578         1.246537
 C         3.395908         0.495474         0.369443
 C         3.264485        -0.930158        -0.245628
 O         4.377828        -1.655783        -0.731240
 C         1.867923        -1.446857         0.080778
 C         2.621178         0.349170        -0.874886
 O         2.572880         1.105926        -2.018963
 H        -0.734847         0.179473         0.385855
 H        -0.191662         1.132617        -0.742808
 H        -0.268691        -0.389274        -1.283416
 H         1.813378         1.890315         1.375916
 H         2.138079         0.519135         2.370568
 H         4.430277         0.729086         0.461955
 H         4.067870        -2.121242        -1.435063
 H         1.643157        -2.003618        -0.846480
 H         1.780974        -2.135301         0.917848
 H         2.294477         2.022468        -1.772500
