19
Iteration:  4038charge 0 multiplicity 1
 C        -0.113672         0.372982        -0.189914
 C         1.361545        -0.067881         0.069269
 C         2.047996         0.613537         1.272624
 C         3.255637         0.458516         0.446701
 C         3.211633        -0.925223        -0.391052
 O         4.476438        -1.498163        -0.644197
 C         1.935263        -1.508589         0.091144
 C         2.586140         0.371270        -0.939713
 O         2.694135         1.007815        -2.232704
 H        -0.808046         0.292236         0.636042
 H        -0.271720         1.329935        -0.549550
 H        -0.516115        -0.174828        -1.056350
 H         1.733749         1.651966         1.695402
 H         1.747864         0.052333         2.228470
 H         4.314973         0.691884         0.615794
 H         4.369623        -1.790498        -1.502832
 H         1.296114        -1.971520        -0.684884
 H         1.818542        -1.964038         1.067576
 H         2.915944         1.977101        -2.034293
