19
Iteration:  2565charge 0 multiplicity 1
 C        -0.110715         0.214038        -0.253485
 C         1.400732        -0.041869         0.072398
 C         2.085421         0.719254         1.274530
 C         3.354494         0.485366         0.465606
 C         3.228937        -0.873300        -0.353755
 O         4.436843        -1.546766        -0.622854
 C         1.824633        -1.452539        -0.078274
 C         2.623196         0.357840        -0.849488
 O         2.692859         1.051646        -2.082077
 H        -0.721468        -0.190588         0.602846
 H        -0.321064         1.235060        -0.189090
 H        -0.499521        -0.248133        -1.222137
 H         1.956091         1.813654         1.325769
 H         2.033424         0.171624         2.197238
 H         4.206980         1.076446         0.465579
 H         4.235172        -1.920722        -1.521261
 H         1.578683        -1.708686        -1.129577
 H         1.543351        -2.285476         0.487393
 H         1.782408         1.104906        -2.359653
