19
Iteration:  3032charge 0 multiplicity 1
 C        -0.190240         0.227454        -0.228497
 C         1.276830        -0.091403         0.203270
 C         2.132105         0.719241         1.244530
 C         3.357465         0.514248         0.402032
 C         3.159380        -0.861169        -0.308670
 O         4.398863        -1.405835        -0.785486
 C         1.787274        -1.471933         0.050676
 C         2.582370         0.413831        -0.853254
 O         2.894454         0.846265        -2.140051
 H        -0.956179        -0.279898         0.344468
 H        -0.301647         1.297740         0.059427
 H        -0.336545        -0.041984        -1.227005
 H         1.808426         1.804876         1.309172
 H         2.121873         0.133029         2.288690
 H         4.366685         0.569674         0.709285
 H         4.253836        -1.582273        -1.832736
 H         1.437129        -1.920439        -0.881930
 H         1.712026        -2.230595         0.837193
 H         2.684200         1.826709        -2.218814
