19
Iteration:  1455charge 0 multiplicity 1
 C        -0.117833         0.059663        -0.207905
 C         1.373762         0.005876         0.078929
 C         2.080479         0.739439         1.251911
 C         3.356201         0.572628         0.354706
 C         3.283320        -0.822520        -0.387513
 O         4.369159        -1.645868        -0.610162
 C         2.022343        -1.497533         0.083885
 C         2.558235         0.406446        -0.935051
 O         2.491763         1.113891        -2.149950
 H        -0.837614        -0.599455         0.472282
 H        -0.440845         1.055727        -0.282466
 H        -0.213615        -0.475939        -1.107633
 H         2.022976         1.791218         1.189947
 H         2.049174         0.372234         2.341393
 H         4.282057         1.006389         0.569366
 H         4.500144        -1.791050        -1.638846
 H         1.655372        -2.160776        -0.688337
 H         2.070602        -2.022770         1.059391
 H         3.187137         1.799676        -1.922457
