19
Iteration:   172
 C        -0.187954         0.214423        -0.058001
 C         1.297177         0.094964         0.032144
 C         2.107080         0.721572         1.146638
 C         3.340287         0.583855         0.433029
 C         3.256594        -0.929474        -0.207646
 O         4.336293        -1.499565        -0.941742
 C         1.872225        -1.420975         0.178196
 C         2.638588         0.334491        -0.912981
 O         2.695992         0.879194        -2.234783
 H        -0.627039         0.492314         0.990123
 H        -0.462253         1.031039        -0.775594
 H        -0.699770        -0.709832        -0.362229
 H         2.044134         1.876357         1.463212
 H         2.049399         0.155377         2.207016
 H         4.325132         0.872891         0.830086
 H         4.827522        -2.073922        -0.344638
 H         1.491119        -1.986738        -0.620580
 H         1.736999        -1.843887         1.240036
 H         3.640632         0.957794        -2.462664
