19
Iteration:  2435charge 0 multiplicity 1
 C        -0.085912         0.214111        -0.342787
 C         1.367202        -0.039710         0.034514
 C         2.031322         0.610859         1.296377
 C         3.368447         0.648264         0.449878
 C         3.281088        -0.841427        -0.296726
 O         4.297008        -1.642945        -0.748795
 C         1.972536        -1.483118         0.057627
 C         2.585718         0.411005        -0.840371
 O         2.607865         1.057782        -2.037813
 H        -0.854228        -0.604646        -0.008114
 H        -0.394305         1.196520        -0.132483
 H        -0.084765         0.130219        -1.480979
 H         1.696760         1.593525         1.607062
 H         2.046571         0.036241         2.287739
 H         4.396025         0.977518         0.781216
 H         4.179325        -1.603693        -1.844008
 H         1.780820        -2.021434        -0.951821
 H         1.780148        -2.142960         0.948632
 H         3.461587         1.591059        -2.218590
