19
Iteration:   329
 C        -0.199277         0.259253         0.005734
 C         1.283002         0.007870         0.114111
 C         2.069829         0.795702         1.229429
 C         3.360201         0.544088         0.356032
 C         3.210925        -0.876368        -0.308461
 O         4.291221        -1.462497        -1.002507
 C         1.877250        -1.453866         0.198516
 C         2.614310         0.349699        -0.899819
 O         2.863517         0.837811        -2.197529
 H        -0.779306        -0.521471         0.639634
 H        -0.530703         1.218118         0.401376
 H        -0.506484         0.215749        -1.054217
 H         1.673618         1.828918         1.082593
 H         1.817399         0.436536         2.329058
 H         4.295908         0.988326         0.507082
 H         4.970751        -1.621620        -0.381854
 H         1.469437        -2.225958        -0.542650
 H         1.825853        -1.929922         1.229531
 H         3.429700         0.123244        -2.675477
