19
Iteration:  4345charge 0 multiplicity 1
 C        -0.108226         0.240633        -0.307954
 C         1.373759         0.017501         0.108070
 C         2.048228         0.729236         1.221345
 C         3.350587         0.514498         0.511582
 C         3.213485        -0.851705        -0.313999
 O         4.301993        -1.612908        -0.862202
 C         1.911703        -1.493038         0.145488
 C         2.653296         0.373824        -0.842155
 O         2.752460         0.960639        -2.106152
 H        -0.708529        -0.453780         0.333592
 H        -0.594538         1.327697        -0.164293
 H        -0.113290         0.007355        -1.414684
 H         1.548005         1.697475         1.371014
 H         1.734241         0.469980         2.269599
 H         4.339697         0.850014         0.826980
 H         4.490230        -1.299309        -1.690684
 H         1.730752        -2.288808        -0.640923
 H         1.802742        -2.023049         1.101929
 H         2.328628         1.799325        -2.071607
