19
Iteration:  2773
 C        -0.022769         0.118214        -0.362746
 C         1.377008         0.033574         0.081227
 C         2.108912         0.601128         1.354618
 C         3.331378         0.460163         0.559847
 C         3.173623        -0.807677        -0.356347
 O         4.311306        -1.535759        -0.789227
 C         1.876502        -1.354281         0.088192
 C         2.650668         0.488456        -0.860022
 O         2.677261         0.946446        -2.167589
 H        -0.785990        -0.351326         0.239200
 H        -0.251612         1.135215        -0.320190
 H        -0.204164        -0.385636        -1.319584
 H         1.911613         1.683009         1.719900
 H         2.050816        -0.037051         2.290455
 H         4.398400         0.690147         0.807202
 H         4.177599        -1.972328        -1.662473
 H         1.251596        -1.991169        -0.607811
 H         1.902436        -1.743974         1.098521
 H         2.527606         1.957888        -2.297606
