19
Iteration:  2472
 C        -0.092914         0.202274        -0.338101
 C         1.308333         0.045923         0.034510
 C         2.025681         0.695491         1.232044
 C         3.388470         0.365771         0.560991
 C         3.228645        -0.870638        -0.296316
 O         4.419646        -1.451024        -0.843514
 C         1.884310        -1.485854         0.109244
 C         2.611355         0.350872        -0.820260
 O         2.633358         1.025688        -2.041657
 H        -0.699824        -0.203558         0.378821
 H        -0.426902         1.263161        -0.422970
 H        -0.200871        -0.251740        -1.268223
 H         1.831367         1.790742         1.110869
 H         1.826277         0.196349         2.246254
 H         4.411615         0.610865         0.705774
 H         4.287479        -1.634691        -1.910030
 H         1.436640        -2.112393        -0.648660
 H         1.678675        -1.966716         1.103745
 H         3.496445         1.498943        -2.215231
