19
Iteration:  3084charge 0 multiplicity 1
 C        -0.139008         0.362165        -0.184482
 C         1.346349        -0.096264         0.015245
 C         2.043405         0.610805         1.225511
 C         3.348132         0.557677         0.477458
 C         3.251050        -0.888648        -0.291567
 O         4.384973        -1.523321        -0.716036
 C         1.889614        -1.544910         0.019400
 C         2.645790         0.385738        -0.868299
 O         2.684389         0.984665        -2.158559
 H        -0.726968         0.326722         0.863171
 H        -0.186035         1.417103        -0.618505
 H        -0.623189        -0.240680        -0.958444
 H         1.619197         1.628589         1.161917
 H         1.960965         0.135859         2.103757
 H         4.271448         0.987735         0.784356
 H         4.248047        -1.899212        -1.604297
 H         1.629677        -2.248030        -0.768167
 H         1.912829        -2.081309         1.019471
 H         2.900488         1.977234        -2.012100
