19
Iteration:  4481
 C        -0.087086         0.203226        -0.371870
 C         1.348697         0.025718         0.086220
 C         2.095646         0.651220         1.239234
 C         3.328711         0.455610         0.482041
 C         3.169799        -0.888607        -0.371411
 O         4.333687        -1.444179        -0.786250
 C         1.920309        -1.482371         0.188286
 C         2.653989         0.392766        -0.876212
 O         2.696346         1.090527        -2.040185
 H        -0.837256        -0.219351         0.394132
 H        -0.271249         1.236907        -0.549065
 H        -0.373095        -0.336582        -1.323246
 H         1.761379         1.628669         1.248336
 H         1.946035         0.280066         2.198059
 H         4.387196         0.584221         0.721901
 H         4.075454        -2.000809        -1.470375
 H         1.429768        -2.198605        -0.401441
 H         1.888331        -1.908605         1.197663
 H         3.091155         0.347038        -2.606949
