19
Iteration:  3649charge 0 multiplicity 1
 C        -0.073212         0.223233        -0.316791
 C         1.373403         0.072769         0.074545
 C         2.039262         0.667939         1.366521
 C         3.333435         0.451206         0.530457
 C         3.141137        -0.843148        -0.308854
 O         4.255807        -1.396973        -0.956133
 C         1.855880        -1.489729         0.151993
 C         2.620262         0.448746        -0.825029
 O         2.863362         0.777304        -2.094841
 H        -0.637777        -0.117340         0.721000
 H        -0.564624         1.229820        -0.643564
 H        -0.332031        -0.481173        -1.116510
 H         1.830410         1.633728         1.438960
 H         1.849954         0.046139         2.164670
 H         4.352452         0.926979         0.687003
 H         4.248593        -1.121417        -1.845213
 H         1.593862        -2.038645        -0.750302
 H         1.797230        -2.123016         1.054954
 H         3.211780         1.613569        -2.271549
