19
Iteration:  3817
 C        -0.068330         0.283428        -0.394413
 C         1.357570         0.060604         0.017966
 C         2.058776         0.747715         1.263915
 C         3.380622         0.494677         0.440307
 C         3.214323        -1.001453        -0.361358
 O         4.437211        -1.571682        -0.812593
 C         1.866685        -1.517276         0.214528
 C         2.611348         0.316800        -0.846263
 O         2.614197         1.058216        -2.010023
 H        -0.817908        -0.065045         0.508648
 H        -0.202155         1.341401        -0.597507
 H        -0.563426        -0.325527        -1.137455
 H         1.648871         1.684687         1.141749
 H         1.823729         0.225218         2.166493
 H         4.415475         0.816729         0.616662
 H         4.222910        -1.887131        -1.789928
 H         1.311605        -2.155592        -0.490270
 H         1.917258        -1.849808         1.269048
 H         3.110130         1.843843        -1.843274
