19
Iteration:  4940charge 0 multiplicity 1
 C        -0.140747         0.196945        -0.250051
 C         1.341175        -0.026428         0.101778
 C         2.116887         0.750214         1.245220
 C         3.395672         0.412619         0.443797
 C         3.181523        -0.814301        -0.354590
 O         4.357480        -1.653094        -0.591337
 C         1.892880        -1.459114        -0.067813
 C         2.608061         0.478422        -0.867638
 O         2.696463         1.041537        -2.115286
 H        -0.704032        -0.488543         0.265112
 H        -0.490783         1.276510        -0.142151
 H        -0.143104         0.043408        -1.388891
 H         1.849264         1.781348         1.191706
 H         2.065570         0.231375         2.190599
 H         4.438919         0.769196         0.585526
 H         4.323320        -2.241198        -1.416230
 H         1.453087        -1.948251        -0.913599
 H         1.760336        -2.149368         0.736981
 H         2.578051         2.077879        -2.105378
