19
Iteration:  3333
 C        -0.014362         0.174882        -0.351661
 C         1.391123        -0.034891         0.104552
 C         2.100485         0.765920         1.260368
 C         3.354019         0.572045         0.414238
 C         3.229843        -0.863919        -0.358771
 O         4.264073        -1.718225        -0.692983
 C         1.935673        -1.502413         0.044983
 C         2.629295         0.423749        -0.860333
 O         2.560810         1.105531        -2.037584
 H        -0.794609        -0.145921         0.382389
 H        -0.124636         1.232509        -0.696827
 H        -0.083062        -0.706381        -1.180747
 H         1.744468         1.721050         1.395699
 H         2.243458         0.401945         2.265293
 H         4.393970         0.828129         0.801307
 H         4.220458        -1.879396        -1.603554
 H         1.508884        -1.856718        -0.879234
 H         1.902844        -2.219479         0.863052
 H         3.006675         2.030260        -1.995479
