19
Iteration:  4574
 C        -0.217924         0.258943        -0.196293
 C         1.342715         0.008146         0.015663
 C         2.113683         0.646279         1.220502
 C         3.339566         0.499244         0.370070
 C         3.191920        -0.921041        -0.367200
 O         4.458628        -1.541594        -0.682881
 C         1.842196        -1.484635        -0.002367
 C         2.638076         0.391549        -0.923197
 O         2.698230         1.111309        -2.025974
 H        -0.791370        -0.523477         0.404472
 H        -0.265943         1.389983         0.045990
 H        -0.608840         0.126623        -1.228784
 H         1.735639         1.690971         1.494284
 H         2.100820         0.149290         2.181653
 H         4.311732         0.949781         0.401887
 H         4.641721        -2.014234         0.232959
 H         1.378819        -2.064234        -0.883188
 H         1.693984        -2.202905         0.838326
 H         3.030923         0.639923        -2.857409
