19
Iteration:  4252
 C        -0.194298         0.340488        -0.131341
 C         1.296203        -0.008715        -0.081303
 C         1.999986         0.651249         1.196856
 C         3.378256         0.427849         0.513313
 C         3.233612        -0.867417        -0.273465
 O         4.429499        -1.471926        -0.735543
 C         1.907806        -1.488478         0.033667
 C         2.665432         0.340463        -0.908249
 O         2.739190         0.948885        -2.158719
 H        -0.567188         0.156594         0.837970
 H        -0.222351         1.360097        -0.308657
 H        -0.745687        -0.100145        -0.915773
 H         1.784839         1.666915         1.544882
 H         1.905584         0.146774         2.198979
 H         4.398351         0.858916         0.712926
 H         4.111986        -2.181284        -1.418066
 H         1.700142        -2.087742        -0.851838
 H         1.730834        -2.055918         0.960518
 H         2.505075         1.886172        -1.955820
