19
Iteration:  1960
 C        -0.138214         0.173241        -0.367360
 C         1.306657         0.023628         0.122872
 C         2.123551         0.575371         1.240308
 C         3.368647         0.487143         0.439599
 C         3.201440        -0.902160        -0.380170
 O         4.404154        -1.412999        -0.773184
 C         1.863349        -1.513856         0.182912
 C         2.547892         0.368414        -0.897095
 O         2.688849         1.116651        -2.065037
 H        -0.730984        -0.174811         0.627115
 H        -0.463151         1.152064        -0.518535
 H        -0.345077        -0.473189        -1.273580
 H         2.012866         1.603036         1.368967
 H         2.149614        -0.089645         2.065197
 H         4.331010         0.785595         0.592726
 H         4.200201        -2.190061        -1.275816
 H         1.434551        -2.030838        -0.625588
 H         1.798115        -1.982474         1.147888
 H         3.578789         1.640791        -2.092564
