19
Iteration:  3019charge 0 multiplicity 1
 C        -0.109348         0.158754        -0.205064
 C         1.309911         0.043749         0.095605
 C         2.127076         0.674908         1.281972
 C         3.406619         0.496448         0.489049
 C         3.195590        -0.812438        -0.280268
 O         4.267471        -1.484661        -0.752027
 C         1.873674        -1.461335        -0.030971
 C         2.567108         0.439776        -0.847957
 O         2.802663         0.827811        -2.160551
 H        -0.767046        -0.610728         0.377945
 H        -0.541499         1.192372        -0.169413
 H        -0.221778         0.021000        -1.250608
 H         1.863154         1.769435         1.422652
 H         2.120277         0.198407         2.286429
 H         4.291996         1.069738         0.538956
 H         4.299272        -1.380336        -1.644575
 H         1.414959        -1.806836        -0.942185
 H         1.693156        -2.175707         0.815669
 H         3.016886         1.776057        -2.160820
