19
Iteration:  2180charge 0 multiplicity 1
 C        -0.100550         0.323446        -0.238541
 C         1.309163        -0.099786         0.023804
 C         2.007217         0.661865         1.236572
 C         3.345454         0.488406         0.466053
 C         3.238793        -0.853390        -0.366132
 O         4.385735        -1.675013        -0.802028
 C         1.947875        -1.536368         0.028475
 C         2.593510         0.386335        -0.891267
 O         2.708787         1.177201        -2.006667
 H        -0.836830        -0.275362         0.447891
 H        -0.183844         1.354104        -0.068178
 H        -0.459428         0.153185        -1.296889
 H         1.771430         1.724866         1.459727
 H         1.799789         0.206114         2.281182
 H         4.263465         1.046063         0.684633
 H         5.164194        -1.146848        -0.594367
 H         1.612192        -2.191811        -0.804034
 H         2.000660        -2.171913         0.957165
 H         1.998212         0.848572        -2.541678
