19
Iteration:   523charge 0 multiplicity 1
 C        -0.239907         0.208699         0.013105
 C         1.320759         0.039506         0.028558
 C         2.091842         0.711872         1.139265
 C         3.420222         0.542866         0.408886
 C         3.208703        -0.846783        -0.286791
 O         4.324439        -1.468474        -0.952974
 C         1.837729        -1.465429         0.257852
 C         2.601368         0.408194        -0.916026
 O         2.826296         0.878395        -2.210788
 H        -0.793351        -0.631453         0.594959
 H        -0.544006         1.194063         0.378559
 H        -0.622858         0.163382        -0.948605
 H         1.907605         1.884031         1.080869
 H         1.839396         0.449369         2.230848
 H         4.396866         1.080288         0.554399
 H         4.669838        -2.080304        -0.433958
 H         1.358275        -1.996073        -0.461871
 H         1.954585        -1.930264         1.244131
 H         3.271723         0.156692        -2.676001
