19
Iteration:  4948charge 0 multiplicity 1
 C        -0.071340         0.168211        -0.293122
 C         1.351440         0.020450         0.081038
 C         2.141015         0.674740         1.248109
 C         3.394000         0.479629         0.440799
 C         3.229936        -0.873093        -0.385059
 O         4.284374        -1.642468        -0.593591
 C         1.857606        -1.389749        -0.028999
 C         2.630494         0.427633        -0.862939
 O         2.652885         1.025253        -2.088248
 H        -0.755901        -0.561766         0.133414
 H        -0.320043         1.187147        -0.211846
 H        -0.031796         0.011309        -1.314096
 H         1.731804         1.762121         1.208270
 H         2.156469         0.449771         2.362125
 H         4.326910         1.040429         0.677295
 H         4.274696        -1.993621        -1.521507
 H         1.503738        -1.899343        -0.951370
 H         1.779547        -2.188299         0.732671
 H         2.676549         1.998318        -1.898433
