19
Iteration:  2413charge 0 multiplicity 1
 C        -0.122202         0.242879        -0.358345
 C         1.295973        -0.038627         0.082067
 C         2.162080         0.602717         1.276584
 C         3.351122         0.449069         0.383776
 C         3.265056        -0.912451        -0.326197
 O         4.444746        -1.521670        -0.642688
 C         1.832077        -1.490361         0.008945
 C         2.530533         0.391753        -0.854604
 O         2.630244         1.103105        -2.032151
 H        -0.827480        -0.538173         0.071507
 H        -0.412071         1.192632        -0.065121
 H        -0.207550         0.207582        -1.476196
 H         1.872208         1.627393         1.498590
 H         2.297175         0.157032         2.311361
 H         4.291001         1.072576         0.233467
 H         4.339195        -1.572819        -1.527771
 H         1.389697        -2.069893        -0.887982
 H         1.754351        -2.062708         0.970337
 H         3.262989         1.771247        -2.170544
