19
Iteration:  2310
 C        -0.115976         0.186526        -0.283248
 C         1.337352         0.039270         0.010143
 C         2.060831         0.650246         1.280491
 C         3.302320         0.344983         0.577990
 C         3.210590        -0.847986        -0.330982
 O         4.312027        -1.456052        -0.858064
 C         1.901127        -1.468155         0.059542
 C         2.667082         0.433813        -0.819027
 O         2.761263         0.950530        -2.123806
 H        -0.762410         0.277695         0.651560
 H        -0.299408         1.089504        -0.883638
 H        -0.446928        -0.729363        -0.811063
 H         1.875118         1.726101         1.437997
 H         1.978748        -0.009223         2.061948
 H         4.237449         0.624397         0.945894
 H         4.921009        -0.732800        -1.265398
 H         1.500099        -2.120339        -0.703485
 H         1.753778        -2.011132         1.027801
 H         2.448876         1.933576        -1.998821
