19
Iteration:  3704charge 0 multiplicity 1
 C        -0.127856         0.325378        -0.175218
 C         1.363733        -0.044034         0.060145
 C         2.017825         0.678871         1.247545
 C         3.289030         0.549924         0.426205
 C         3.231583        -0.830304        -0.319718
 O         4.365250        -1.510256        -0.798344
 C         1.863024        -1.539782        -0.006085
 C         2.596985         0.350207        -0.866633
 O         2.840578         0.878401        -2.030495
 H        -0.709160        -0.111414         0.648400
 H        -0.039665         1.450288        -0.165431
 H        -0.642526        -0.055932        -1.017332
 H         1.597347         1.602362         1.300343
 H         1.884567         0.223251         2.206217
 H         4.323280         0.967328         0.576319
 H         4.294947        -1.390163        -1.719125
 H         1.519221        -2.018767        -0.905345
 H         1.910180        -2.150517         0.886113
 H         2.501505         1.731285        -2.243267
