19
Iteration:  3524
 C        -0.086359         0.295958        -0.217510
 C         1.340582        -0.052356        -0.004942
 C         2.034114         0.660938         1.179149
 C         3.413501         0.471075         0.452321
 C         3.183584        -0.887039        -0.340035
 O         4.391817        -1.582945        -0.717134
 C         1.889686        -1.533559         0.096817
 C         2.655677         0.419371        -0.848723
 O         2.605178         1.093944        -2.123074
 H        -0.853156         0.121550         0.607722
 H        -0.303715         1.413304        -0.362860
 H        -0.357766        -0.280902        -1.314881
 H         1.878986         1.684933         1.419193
 H         2.102470         0.217710         2.213092
 H         4.444546         0.878615         0.664224
 H         4.169999        -2.191197        -1.337700
 H         1.592631        -2.317346        -0.642948
 H         1.816696        -2.030865         1.072857
 H         3.122839         1.865080        -1.985490
