19
Iteration:  4296charge 0 multiplicity 1
 C        -0.164566         0.220958        -0.265086
 C         1.314203        -0.018906         0.146750
 C         2.153231         0.709026         1.318742
 C         3.303713         0.552832         0.459715
 C         3.186916        -0.866281        -0.272888
 O         4.217595        -1.474437        -0.826989
 C         1.905052        -1.505625         0.057556
 C         2.586156         0.389020        -0.887497
 O         2.893071         0.829679        -2.179552
 H        -0.731996        -0.513895         0.264296
 H        -0.483512         1.143455        -0.021607
 H        -0.316521         0.118129        -1.307737
 H         1.818621         1.695315         1.588549
 H         2.049949         0.330558         2.339697
 H         4.351829         0.810776         0.756557
 H         4.658269        -0.785095        -1.524328
 H         1.324056        -1.907336        -0.767549
 H         1.858285        -2.163548         0.947330
 H         3.020932         1.834223        -2.164166
