19
Iteration:  1744charge 0 multiplicity 1
 C        -0.177199         0.289911        -0.171997
 C         1.289298        -0.043240         0.098126
 C         2.090322         0.553363         1.230538
 C         3.332363         0.540175         0.469646
 C         3.235043        -0.865213        -0.273951
 O         4.394644        -1.391486        -0.874448
 C         1.905790        -1.462300        -0.055147
 C         2.601106         0.376171        -0.850263
 O         2.729975         0.861724        -2.129725
 H        -0.716433         0.023489         0.726100
 H        -0.386795         1.345481        -0.421535
 H        -0.599847        -0.234874        -1.082702
 H         1.801632         1.591837         1.397848
 H         2.002586         0.135871         2.259869
 H         4.169840         0.968088         0.815288
 H         4.935092        -1.587183        -0.183570
 H         1.559778        -2.097717        -0.886331
 H         1.662383        -2.087222         0.796118
 H         2.995291         1.777585        -2.032813
