19
Iteration:  2353charge 0 multiplicity 1
 C        -0.176191         0.312485        -0.241162
 C         1.325549        -0.093674         0.047010
 C         2.017489         0.585955         1.274913
 C         3.349364         0.569637         0.461101
 C         3.276254        -0.824719        -0.257688
 O         4.418282        -1.572641        -0.754965
 C         1.950423        -1.503778        -0.043881
 C         2.573138         0.368573        -0.909852
 O         2.786658         1.057345        -2.031430
 H        -0.818869         0.162753         0.705825
 H        -0.314674         1.492398        -0.617617
 H        -0.651258        -0.320252        -1.040005
 H         1.610662         1.581790         1.604970
 H         2.171929        -0.041311         2.116016
 H         4.177870         1.098958         0.764315
 H         4.026405        -2.166242        -1.608297
 H         1.604990        -1.792933        -1.000696
 H         1.861545        -2.286041         0.723896
 H         2.011657         1.571440        -2.328652
