19
Iteration:  3012charge 0 multiplicity 1
 C        -0.127571         0.169655        -0.217538
 C         1.382537         0.090368         0.038227
 C         2.082830         0.667431         1.327521
 C         3.385934         0.513309         0.498320
 C         3.212095        -0.795081        -0.289035
 O         4.249392        -1.543988        -0.750835
 C         1.904019        -1.430333        -0.033452
 C         2.604216         0.436335        -0.820995
 O         2.746519         0.825113        -2.161544
 H        -0.520570        -0.579570         0.339302
 H        -0.675574         1.104600        -0.012139
 H        -0.203637        -0.183423        -1.278748
 H         1.896852         1.738347         1.340483
 H         2.052589        -0.004929         2.356669
 H         4.299025         1.113996         0.510017
 H         4.295242        -1.312635        -1.714881
 H         1.525133        -1.928702        -0.966737
 H         1.679527        -2.021544         0.842105
 H         3.123981         1.779337        -2.153312
