19
Iteration:  2504
 C        -0.094702         0.284830        -0.286650
 C         1.255572        -0.097340         0.109959
 C         2.132609         0.657036         1.259880
 C         3.299817         0.529754         0.372607
 C         3.192029        -0.859308        -0.355418
 O         4.475798        -1.434479        -0.723493
 C         1.830896        -1.616419         0.043506
 C         2.501330         0.365970        -0.883759
 O         2.745904         1.031546        -2.045624
 H        -0.799265         0.262912         0.557186
 H        -0.095119         1.309682        -0.762298
 H        -0.478827        -0.388302        -0.996348
 H         1.611817         1.632341         1.524721
 H         2.212000         0.137641         2.325324
 H         4.327694         0.796574         0.280376
 H         4.482974        -1.825320        -1.515366
 H         1.451158        -2.177699        -0.835315
 H         1.659724        -2.163064         1.055455
 H         3.407063         1.719090        -1.750338
