19
Iteration:   773
 C        -0.107659         0.303771        -0.267526
 C         1.317018        -0.044942         0.048707
 C         2.145993         0.690973         1.312981
 C         3.472750         0.668081         0.380235
 C         3.246093        -0.864540        -0.240346
 O         4.384284        -1.355608        -0.925596
 C         1.875174        -1.465337         0.172270
 C         2.543144         0.300279        -0.867177
 O         2.559565         0.808837        -2.114595
 H        -0.831532        -0.041978         0.550988
 H        -0.161517         1.397975        -0.396393
 H        -0.497906        -0.148929        -1.146720
 H         1.908041         1.690387         1.524233
 H         2.242262         0.064137         2.270398
 H         4.448778         0.856966         0.668233
 H         4.804104        -2.184045        -0.364282
 H         1.522096        -2.189828        -0.646347
 H         1.537360        -1.867944         1.129969
 H         2.749899         0.152348        -2.728654
