19
Iteration:   146charge 0 multiplicity 1
 C        -0.139746         0.167509        -0.007086
 C         1.335897         0.014551         0.093268
 C         2.083671         0.784899         1.211410
 C         3.367331         0.579914         0.421503
 C         3.137621        -0.852776        -0.392321
 O         4.222028        -1.476781        -0.877165
 C         1.957666        -1.445379         0.080403
 C         2.578627         0.434020        -0.855016
 O         2.824893         0.817858        -2.198570
 H        -0.529607         0.094086         0.910775
 H        -0.379127         1.139704        -0.398128
 H        -0.687543        -0.633239        -0.644524
 H         1.807690         1.828617         1.049723
 H         2.003647         0.604187         2.237181
 H         4.321207         1.069628         0.489339
 H         4.509849        -2.036083        -0.293112
 H         1.392138        -2.036167        -0.725973
 H         2.089857        -1.946176         1.024020
 H         3.600352         0.299225        -2.378770
