19
Iteration:  2022
 C        -0.109156         0.209371        -0.274689
 C         1.375439         0.000302         0.000259
 C         2.068039         0.638905         1.206205
 C         3.360707         0.425466         0.461696
 C         3.233725        -0.896386        -0.319870
 O         4.425223        -1.582978        -0.686406
 C         1.918935        -1.472518         0.033077
 C         2.651742         0.378768        -0.871086
 O         2.642012         1.168534        -2.060673
 H        -0.524993        -0.536063         0.303835
 H        -0.442442         1.213955         0.191747
 H        -0.571939         0.201560        -1.218510
 H         1.871031         1.770818         1.171701
 H         1.908648         0.447839         2.271684
 H         4.306718         0.797323         0.542601
 H         4.306209        -1.867940        -1.677635
 H         1.538548        -2.176044        -0.758598
 H         1.663503        -1.902014         1.051427
 H         1.625327         1.306146        -2.052326
