19
Iteration:  3328charge 0 multiplicity 1
 C        -0.007108         0.148084        -0.356487
 C         1.356336         0.012165         0.108044
 C         2.113379         0.777428         1.282588
 C         3.363625         0.574515         0.388190
 C         3.225041        -0.902373        -0.358497
 O         4.255563        -1.698011        -0.689451
 C         1.952339        -1.496402         0.032157
 C         2.622175         0.408275        -0.865491
 O         2.571131         1.095631        -2.019023
 H        -0.768511        -0.133161         0.375681
 H        -0.116769         1.106697        -0.854969
 H        -0.131217        -0.521190        -1.098612
 H         1.649653         1.851450         1.516298
 H         2.178001         0.414972         2.357123
 H         4.390457         0.681776         0.612811
 H         4.334717        -1.749928        -1.717171
 H         1.511341        -1.913771        -0.933356
 H         1.923297        -2.227896         0.873397
 H         3.022177         1.896356        -1.857466
