19
Iteration:   215charge 0 multiplicity 1
 C         0.022578         0.379674        -0.302909
 C         1.459516        -0.054071         0.171130
 C         2.166217         0.789563         1.224805
 C         3.330198         0.473853         0.322938
 C         3.220092        -0.948112        -0.329061
 O         4.337802        -1.571438        -0.775590
 C         1.953396        -1.561050         0.161960
 C         2.576908         0.334323        -0.912661
 O         2.358302         1.020713        -2.117533
 H        -0.642152         0.692219         0.518845
 H         0.082054         1.207515        -1.043772
 H        -0.490039        -0.450190        -0.814131
 H         1.621261         1.838147         1.157780
 H         2.135588         0.445140         2.302283
 H         4.326468         0.850144         0.686659
 H         5.123590        -1.686677         0.050752
 H         1.298586        -2.026032        -0.531245
 H         2.106934        -2.103575         1.182019
 H         3.274991         1.099790        -2.563929
