19
Iteration:   709charge 0 multiplicity 1
 C        -0.236117         0.105340        -0.015232
 C         1.321357         0.070206         0.079284
 C         2.125537         0.750881         1.171753
 C         3.414793         0.618365         0.303622
 C         3.306267        -0.844946        -0.229288
 O         4.237252        -1.555976        -0.879500
 C         1.851393        -1.440558         0.145935
 C         2.559643         0.285211        -0.922398
 O         2.826858         1.006757        -2.177530
 H        -0.670895        -0.678575         0.762122
 H        -0.651754         1.091242         0.101952
 H        -0.539822        -0.286005        -0.922123
 H         1.919004         1.749518         1.301591
 H         1.960810         0.248501         2.121253
 H         4.302249         1.173750         0.233566
 H         4.990328        -1.589044        -0.112283
 H         1.535222        -2.067926        -0.682886
 H         1.603610        -1.751266         1.206992
 H         3.147024         0.399489        -2.816303
