19
Iteration:  2768
 C        -0.056957         0.149432        -0.363011
 C         1.391758         0.090126         0.075849
 C         2.085190         0.567214         1.322572
 C         3.347587         0.431134         0.565365
 C         3.197617        -0.873027        -0.398024
 O         4.332462        -1.507447        -0.776139
 C         1.879465        -1.381524         0.106995
 C         2.647405         0.516611        -0.822691
 O         2.667469         0.953920        -2.169096
 H        -0.739895        -0.340364         0.396672
 H        -0.425491         1.291711        -0.429025
 H        -0.209150        -0.420277        -1.348161
 H         1.997050         1.598073         1.515093
 H         2.009842         0.111731         2.290472
 H         4.371065         0.637661         0.828043
 H         4.174319        -1.995947        -1.604907
 H         1.369704        -2.056045        -0.554568
 H         1.902682        -1.776950         1.159352
 H         2.386588         1.839153        -2.278121
