19
Iteration:  4735charge 0 multiplicity 1
 C        -0.113227         0.264784        -0.160423
 C         1.350551        -0.042652         0.026905
 C         2.149381         0.632748         1.211262
 C         3.354731         0.561573         0.405198
 C         3.197405        -0.831756        -0.346195
 O         4.393359        -1.619526        -0.500286
 C         1.857963        -1.479171        -0.174118
 C         2.631901         0.411969        -0.921868
 O         2.612757         1.095390        -2.072012
 H        -0.724829        -0.548269         0.225300
 H        -0.445889         1.203435         0.110088
 H        -0.364988         0.155628        -1.169152
 H         1.886625         1.735800         1.422334
 H         1.992023        -0.010453         2.191105
 H         4.402477         0.653192         0.692398
 H         4.345999        -2.219150        -1.357526
 H         1.245710        -1.967181        -0.934615
 H         1.627146        -2.069173         0.727175
 H         3.529286         1.279486        -2.533936
