19
Iteration:  4135
 C        -0.137170         0.191965        -0.328517
 C         1.309742        -0.019468         0.044268
 C         2.094733         0.690454         1.300677
 C         3.371951         0.520377         0.428045
 C         3.259385        -0.854953        -0.215390
 O         4.253494        -1.550054        -0.850754
 C         1.877983        -1.459420         0.136362
 C         2.573421         0.329160        -0.834674
 O         2.792254         0.927744        -2.099971
 H        -0.859251        -0.302234         0.284128
 H        -0.397003         1.321145        -0.171940
 H        -0.293257         0.181151        -1.447271
 H         1.710848         1.696801         1.257272
 H         2.156619         0.503937         2.308420
 H         4.387765         1.029397         0.443178
 H         4.659835        -1.065351        -1.690808
 H         1.603226        -2.173098        -0.662595
 H         1.854419        -1.920244         1.129548
 H         2.978551         1.922717        -1.908855
