19
Iteration:  1981charge 0 multiplicity 1
 C        -0.097455         0.109619        -0.325758
 C         1.335353        -0.052601         0.050502
 C         2.088776         0.688260         1.383657
 C         3.347431         0.536418         0.409202
 C         3.290806        -0.880866        -0.339883
 O         4.299231        -1.589310        -0.786399
 C         1.938439        -1.432059         0.034990
 C         2.589820         0.462719        -0.866014
 O         2.673677         1.094185        -2.044750
 H        -0.814053        -0.520831         0.391503
 H        -0.416088         1.123660        -0.453517
 H        -0.112089        -0.290192        -1.368609
 H         1.757830         1.740693         1.426947
 H         2.129461         0.104069         2.278220
 H         4.268909         0.981267         0.435132
 H         3.960610        -2.432749        -1.101839
 H         1.641876        -2.046767        -0.764359
 H         1.884249        -1.918171         0.992759
 H         2.951799         2.036692        -1.999794
