19
Iteration:  1494
 C        -0.082737         0.267291        -0.242550
 C         1.333117        -0.028433         0.077689
 C         2.105631         0.696475         1.193929
 C         3.289630         0.491263         0.427748
 C         3.244122        -0.863838        -0.300371
 O         4.473206        -1.296780        -0.902673
 C         1.932322        -1.564589         0.178358
 C         2.514789         0.204332        -0.907366
 O         2.623008         0.932908        -2.079315
 H        -0.681391         0.028682         0.592051
 H        -0.295753         1.377272        -0.415183
 H        -0.473869        -0.236738        -1.180458
 H         1.774014         1.800264         1.365655
 H         1.828172         0.148312         2.055422
 H         4.332387         1.012205         0.579153
 H         4.694986        -2.286465        -0.460730
 H         1.473810        -2.299063        -0.544735
 H         1.902397        -1.975090         1.200558
 H         2.602905         1.853517        -1.923062
