19
Iteration:  1515
 C        -0.130693         0.293243        -0.227908
 C         1.341093        -0.115268         0.136832
 C         2.019243         0.615448         1.318928
 C         3.319747         0.525301         0.447290
 C         3.238579        -0.833752        -0.355410
 O         4.387360        -1.365915        -0.932866
 C         1.964888        -1.531809         0.118869
 C         2.590162         0.396366        -0.800503
 O         2.680830         0.819093        -2.167274
 H        -0.787621         0.288643         0.498112
 H        -0.110852         1.385304        -0.556491
 H        -0.525685        -0.173270        -1.176333
 H         1.720147         1.708162         1.193254
 H         1.901011         0.315200         2.354124
 H         4.415354         0.936509         0.528910
 H         5.068535        -1.333255        -0.304152
 H         1.619713        -2.248889        -0.685069
 H         1.915963        -2.064935         1.100906
 H         2.312700         1.761438        -2.319370
