19
Iteration:   900
 C        -0.102772         0.071581        -0.055754
 C         1.351977         0.064638         0.006093
 C         2.147250         0.704675         1.202193
 C         3.364406         0.554954         0.352531
 C         3.228818        -0.795583        -0.300507
 O         4.336432        -1.724860        -0.706033
 C         1.896946        -1.385760         0.133881
 C         2.601463         0.381324        -1.005546
 O         2.616544         0.992876        -2.225579
 H        -0.566002        -0.482274         0.753328
 H        -0.486694         1.171777         0.007354
 H        -0.667361        -0.355101        -1.023086
 H         1.987024         1.826472         1.427553
 H         1.975956         0.239831         2.100677
 H         4.179357         1.256150         0.341298
 H         5.286850        -1.200776        -0.521546
 H         1.489298        -1.917662        -0.766009
 H         1.787593        -1.904169         1.167728
 H         2.643419         1.944891        -1.891648
