19
Iteration:  1073charge 0 multiplicity 1
 C        -0.121361         0.044834        -0.095548
 C         1.348465        -0.013796         0.072989
 C         2.101610         0.803256         1.110508
 C         3.301027         0.559387         0.298899
 C         3.223580        -0.919481        -0.388921
 O         4.418525        -1.549224        -0.684197
 C         1.993698        -1.493393         0.181996
 C         2.539654         0.386058        -0.953718
 O         2.656587         1.182650        -2.094525
 H        -0.703877        -0.486631         0.720178
 H        -0.389379         1.095875         0.061689
 H        -0.537555        -0.111600        -1.089564
 H         1.622154         1.796074         0.925969
 H         2.195867         0.459648         2.191948
 H         4.248331         0.922440         0.430272
 H         4.240499        -2.641638        -0.745942
 H         1.504785        -2.199532        -0.422416
 H         2.105771        -1.859511         1.201678
 H         2.612604         0.532076        -2.833771
