19
Iteration:    68charge 0 multiplicity 1
 C        -0.014562         0.290206        -0.297197
 C         1.361781        -0.042022         0.123208
 C         2.179827         0.834761         1.214968
 C         3.389556         0.534633         0.330923
 C         3.273794        -0.888635        -0.318274
 O         4.388940        -1.639036        -0.713876
 C         1.908665        -1.488791         0.197006
 C         2.590954         0.291086        -0.952414
 O         2.423870         0.962317        -2.154398
 H        -0.719954        -0.447997        -0.191064
 H        -0.426692         1.221263         0.078878
 H         0.065104         0.398426        -1.455232
 H         1.956521         1.918729         1.182241
 H         2.290742         0.506240         2.244667
 H         4.214631         1.310021         0.421516
 H         5.075882        -1.833205         0.153422
 H         1.425512        -2.147772        -0.608456
 H         1.867796        -2.029250         1.125346
 H         1.698637         1.575105        -1.947908
