19
Iteration:  3440
 C        -0.140190         0.244111        -0.209842
 C         1.322014         0.069045        -0.013819
 C         1.977531         0.593394         1.288867
 C         3.387971         0.527121         0.550396
 C         3.263682        -0.817127        -0.225285
 O         4.357479        -1.637862        -0.910445
 C         1.860614        -1.367827         0.047961
 C         2.594075         0.564007        -0.798095
 O         2.780278         0.769141        -2.159606
 H        -0.516359        -0.327314         0.690454
 H        -0.485909         1.273562        -0.175153
 H        -0.492904        -0.150845        -1.068021
 H         1.866388         1.812758         1.409506
 H         2.096228        -0.110059         2.185872
 H         4.260713         0.994174         1.089631
 H         4.613450        -1.125478        -1.742937
 H         1.516128        -2.000511        -0.842938
 H         1.762752        -1.979207         0.979362
 H         2.725911         1.777994        -2.394344
