19
Iteration:  1079
 C        -0.170452         0.033781        -0.088921
 C         1.331330        -0.060223         0.025807
 C         2.108711         0.819841         1.151944
 C         3.322551         0.623993         0.311954
 C         3.226985        -0.912363        -0.393540
 O         4.415622        -1.548376        -0.696886
 C         1.996961        -1.474353         0.201164
 C         2.583811         0.375103        -0.941919
 O         2.678018         1.152000        -2.095649
 H        -0.819644        -0.524216         0.635805
 H        -0.338304         1.127280         0.018068
 H        -0.555437        -0.169514        -1.103674
 H         1.791791         1.875782         1.067821
 H         2.168135         0.446141         2.161824
 H         4.444310         0.898207         0.406811
 H         4.098764        -2.409839        -0.880187
 H         1.468810        -2.216402        -0.527380
 H         1.920453        -2.012045         1.191672
 H         2.268657         0.501165        -2.791475
