19
Iteration:  3425
 C        -0.223293         0.302575        -0.154009
 C         1.327341         0.052286         0.003405
 C         2.049017         0.621943         1.283257
 C         3.371188         0.532181         0.537612
 C         3.285410        -0.830403        -0.306492
 O         4.372286        -1.559484        -0.792115
 C         1.881110        -1.416007        -0.028052
 C         2.695322         0.419575        -0.835114
 O         2.734452         0.794304        -2.158697
 H        -0.837765        -0.400219         0.471845
 H        -0.491469         1.360240         0.092605
 H        -0.696016         0.034697        -1.179057
 H         1.665087         1.522314         1.626188
 H         1.809212         0.041702         2.194573
 H         4.374352         0.904535         0.596765
 H         4.512820        -1.248550        -1.643418
 H         1.579586        -1.964502        -0.925058
 H         1.651019        -1.924207         0.906828
 H         2.837265         1.751436        -2.239381
