19
Iteration:  3260
 C        -0.104878         0.333361        -0.145848
 C         1.322803        -0.070216         0.089008
 C         2.003835         0.649329         1.196626
 C         3.244865         0.583553         0.439740
 C         3.238185        -0.843754        -0.313117
 O         4.357406        -1.585177        -0.817071
 C         1.924613        -1.515593        -0.012989
 C         2.539974         0.424485        -0.821704
 O         2.843383         0.845493        -2.099650
 H        -0.731123         0.038040         0.639600
 H        -0.048700         1.410758        -0.212018
 H        -0.473831        -0.096420        -0.998059
 H         1.607376         1.706322         1.364387
 H         1.893139         0.349467         2.261530
 H         4.239950         1.057304         0.559930
 H         5.002835        -0.918606        -1.189289
 H         1.660396        -2.064294        -0.905977
 H         1.898155        -2.102995         0.939851
 H         2.445154         1.734825        -2.278283
