19
Iteration:  3942charge 0 multiplicity 1
 C        -0.099154         0.256682        -0.271242
 C         1.307864        -0.006039         0.028021
 C         2.104767         0.609826         1.242869
 C         3.371160         0.473215         0.409605
 C         3.238379        -0.865866        -0.305181
 O         4.405472        -1.505873        -0.725538
 C         1.802921        -1.458373         0.194879
 C         2.532627         0.338755        -0.909666
 O         2.748737         1.016732        -2.147128
 H        -0.972009        -0.399260         0.248021
 H        -0.370362         1.363032        -0.155912
 H        -0.317307         0.048567        -1.355517
 H         1.892358         1.575270         1.454452
 H         2.223826         0.210757         2.208699
 H         4.328042         0.955813         0.588844
 H         4.284888        -1.894919        -1.625969
 H         1.401586        -2.156039        -0.571976
 H         1.712187        -1.936364         1.183787
 H         2.987008         1.908293        -1.986451
