19
Iteration:  4471
 C        -0.092281         0.246405        -0.328780
 C         1.355223         0.025422         0.027767
 C         2.007392         0.697337         1.253415
 C         3.345856         0.389225         0.451964
 C         3.207621        -0.910612        -0.370040
 O         4.415627        -1.499044        -0.752747
 C         1.888939        -1.467153         0.180434
 C         2.630683         0.381885        -0.848512
 O         2.640145         1.097417        -2.052356
 H        -0.719430        -0.082816         0.638044
 H        -0.351177         1.216230        -0.692446
 H        -0.279358        -0.540217        -1.120588
 H         2.051472         1.751139         1.317644
 H         1.929042         0.147288         2.073841
 H         4.350116         0.752483         0.736882
 H         4.414743        -1.814478        -1.599801
 H         1.296621        -1.903673        -0.589522
 H         1.874017        -1.999376         1.141614
 H         3.155400         0.588925        -2.715626
