19
Iteration:  3600
 C        -0.099865         0.335436        -0.218031
 C         1.407843        -0.018920         0.017892
 C         2.042502         0.689512         1.264144
 C         3.349786         0.422923         0.443540
 C         3.197236        -0.914685        -0.372709
 O         4.421737        -1.561370        -0.648952
 C         1.924978        -1.533066         0.036456
 C         2.562699         0.368337        -0.932373
 O         2.683057         1.058512        -2.108018
 H        -0.631845        -0.200216         0.482333
 H        -0.418255         1.358638         0.043194
 H        -0.396592         0.212240        -1.330738
 H         1.844305         1.836104         1.265652
 H         1.802298        -0.021990         2.112539
 H         4.319962         0.923369         0.492124
 H         4.243235        -2.055967        -1.596436
 H         1.336509        -2.225686        -0.611932
 H         1.955042        -1.980301         1.048922
 H         2.391196         2.030752        -1.962378
