19
Iteration:  2069
 C        -0.084640         0.355573        -0.230937
 C         1.348345        -0.119972         0.053213
 C         2.107740         0.547900         1.321239
 C         3.316368         0.489005         0.471904
 C         3.209656        -0.848228        -0.353219
 O         4.406046        -1.461621        -0.700912
 C         1.897733        -1.562560         0.018328
 C         2.502354         0.432031        -0.908852
 O         2.683406         1.075156        -2.100276
 H        -0.831976        -0.013063         0.610580
 H        -0.073180         1.386568        -0.336310
 H        -0.500769         0.121122        -1.250888
 H         1.828742         1.604385         1.627639
 H         2.167239        -0.039685         2.286547
 H         4.267880         1.157084         0.423174
 H         4.449267        -1.755486        -1.562452
 H         1.461492        -2.102183        -0.803026
 H         1.957985        -2.168738         0.969123
 H         3.006838         0.504192        -2.901173
