19
Iteration:  4832charge 0 multiplicity 1
 C        -0.101497         0.224291        -0.430144
 C         1.377538         0.068826         0.022932
 C         2.055520         0.660822         1.329383
 C         3.435650         0.486837         0.577404
 C         3.198749        -0.851529        -0.232324
 O         4.235948        -1.497178        -0.874514
 C         1.857354        -1.483622         0.047763
 C         2.690071         0.387776        -0.795391
 O         2.771953         0.886059        -2.068882
 H        -0.862146         0.169932         0.397034
 H        -0.312502         1.265083        -0.895305
 H        -0.569771        -0.554389        -1.169690
 H         1.835663         1.651019         1.573897
 H         1.844158         0.157933         2.265308
 H         4.487583         0.773001         0.831795
 H         4.376011        -1.160561        -1.810451
 H         1.457086        -2.182980        -0.720951
 H         1.920132        -2.058168         1.064489
 H         2.279934         1.820280        -1.978537
