19
Iteration:  2936charge 0 multiplicity 1
 C        -0.103510         0.317279        -0.333163
 C         1.278455        -0.065534         0.121288
 C         2.079316         0.640167         1.219892
 C         3.399482         0.443883         0.326871
 C         3.226601        -0.972204        -0.367903
 O         4.514241        -1.472511        -0.711077
 C         1.771328        -1.535882         0.186554
 C         2.609338         0.311561        -0.911679
 O         2.649245         1.111107        -2.054627
 H        -0.758936         0.189910         0.568819
 H        -0.161289         1.416322        -0.595149
 H        -0.434873        -0.541263        -1.057409
 H         1.876072         1.670870         1.158932
 H         2.115861         0.504712         2.268450
 H         4.374250         0.841737         0.382880
 H         4.477761        -1.746489        -1.645888
 H         1.214646        -2.224369        -0.509231
 H         1.765356        -1.968009         1.191216
 H         2.524973         1.993754        -1.715768
