19
Iteration:  2810charge 0 multiplicity 1
 C        -0.183337         0.245424        -0.295321
 C         1.274945        -0.095063         0.038671
 C         2.103780         0.732233         1.215173
 C         3.362383         0.530016         0.414154
 C         3.293633        -0.866306        -0.272097
 O         4.365299        -1.557781        -0.839649
 C         1.895882        -1.481061         0.078026
 C         2.562531         0.362367        -0.823244
 O         2.743034         0.938510        -1.989798
 H        -0.887951        -0.409247         0.229214
 H        -0.329478         1.273683         0.056701
 H        -0.336252         0.313115        -1.320982
 H         1.770879         1.829828         1.202705
 H         2.074236         0.267489         2.270637
 H         4.247452         1.127340         0.548818
 H         4.250713        -1.303328        -1.740008
 H         1.516849        -2.079611        -0.738180
 H         1.811030        -2.055171         1.020257
 H         3.170222         1.830404        -1.822986
