19
Iteration:  3754
 C        -0.138234         0.257540        -0.278513
 C         1.389779         0.022712         0.046006
 C         2.190736         0.574152         1.217967
 C         3.395560         0.475583         0.337210
 C         3.197106        -0.902130        -0.428785
 O         4.431767        -1.587822        -0.516347
 C         1.844536        -1.413578        -0.003241
 C         2.568991         0.381260        -0.893264
 O         2.549334         1.111572        -2.063058
 H        -0.782046        -0.460817         0.357683
 H        -0.271660         1.319240        -0.248098
 H        -0.405964        -0.211859        -1.330261
 H         1.877557         1.645857         1.586676
 H         2.140556         0.111115         2.247764
 H         4.419208         0.896821         0.410051
 H         4.462321        -2.463295        -1.125407
 H         1.311732        -1.995768        -0.828734
 H         1.825472        -1.878420         1.006177
 H         3.077880         1.943574        -2.072935
