19
Iteration:  4665charge 0 multiplicity 1
 C        -0.076979         0.272893        -0.381575
 C         1.319936        -0.018649         0.039230
 C         2.095314         0.702530         1.254975
 C         3.358800         0.401418         0.450610
 C         3.190144        -0.895182        -0.260669
 O         4.337268        -1.403886        -0.818714
 C         1.884386        -1.563234         0.124834
 C         2.535704         0.314610        -0.838543
 O         2.812852         1.111889        -1.951330
 H        -0.844974         0.273090         0.299241
 H         0.001459         1.133877        -1.093627
 H        -0.403912        -0.563177        -1.070418
 H         1.831821         1.721331         1.127645
 H         2.125413         0.355823         2.330650
 H         4.380216         0.808518         0.594077
 H         4.054586        -2.125396        -1.497651
 H         1.626397        -2.226251        -0.705798
 H         1.731128        -2.221667         1.046236
 H         2.152212         0.984214        -2.666287
