19
Iteration:  1862
 C        -0.113494         0.224623        -0.390885
 C         1.345594        -0.047721         0.105586
 C         2.153730         0.599989         1.334272
 C         3.436585         0.424211         0.442259
 C         3.164512        -0.881702        -0.391797
 O         4.423795        -1.387215        -0.690905
 C         1.842101        -1.469081         0.105847
 C         2.575370         0.416111        -0.888072
 O         2.568604         1.064086        -2.139522
 H        -0.892887        -0.331850         0.314188
 H        -0.344569         1.215105        -0.356763
 H        -0.283492        -0.067593        -1.466153
 H         1.980518         1.601205         1.665096
 H         2.184035        -0.105856         2.254659
 H         4.419558         0.578666         0.727387
 H         4.327565        -2.192850        -1.122251
 H         1.399543        -2.153692        -0.688968
 H         1.775985        -2.140919         1.039773
 H         3.434670         1.612160        -2.190597
