19
Iteration:  2444charge 0 multiplicity 1
 C        -0.056263         0.201932        -0.342340
 C         1.353720        -0.011491         0.067571
 C         1.971811         0.633079         1.295662
 C         3.304262         0.577517         0.556918
 C         3.283976        -0.831638        -0.336040
 O         4.284404        -1.631498        -0.793320
 C         1.995676        -1.450605         0.051327
 C         2.738049         0.401440        -0.833064
 O         2.597419         1.041545        -2.065253
 H        -0.811073        -0.587193         0.214192
 H        -0.436697         1.227388        -0.118455
 H        -0.118858         0.096514        -1.510614
 H         1.528009         1.626634         1.491440
 H         1.956225         0.053549         2.210244
 H         4.399962         0.950670         0.712042
 H         4.121164        -1.631599        -1.878720
 H         1.559335        -2.141636        -0.745805
 H         1.995502        -1.983247         1.010275
 H         3.336236         1.614357        -2.463365
