19
Iteration:   963
 C        -0.065201         0.355200        -0.252938
 C         1.337282         0.005980         0.084031
 C         2.077912         0.646189         1.266663
 C         3.292232         0.567641         0.403568
 C         3.297327        -0.869645        -0.244424
 O         4.364458        -1.424987        -0.985187
 C         1.906419        -1.461751         0.215266
 C         2.580130         0.290507        -0.879411
 O         2.639369         0.786204        -2.114837
 H        -0.730126         0.072735         0.594123
 H        -0.070629         1.396129        -0.458657
 H        -0.392147        -0.252580        -1.064501
 H         2.047780         1.764316         1.332034
 H         2.110498         0.140297         2.301649
 H         4.339556         0.902040         0.418515
 H         5.237952        -1.151030        -0.403317
 H         1.551574        -2.165296        -0.492907
 H         1.791016        -1.944057         1.220657
 H         1.675456         1.072485        -2.275249
