19
Iteration:  1869
 C        -0.095107         0.214070        -0.358231
 C         1.297052        -0.009588         0.122035
 C         2.124331         0.543598         1.371164
 C         3.447880         0.435920         0.421690
 C         3.200386        -0.848130        -0.349389
 O         4.398568        -1.407839        -0.676585
 C         1.860227        -1.469630         0.023940
 C         2.601167         0.433209        -0.878793
 O         2.554459         1.030984        -2.161191
 H        -0.908330        -0.193327         0.246353
 H        -0.295437         1.358057        -0.373312
 H        -0.132056        -0.223840        -1.325478
 H         1.882191         1.570480         1.709174
 H         2.124044        -0.177261         2.105422
 H         4.553683         0.711846         0.772281
 H         4.388656        -2.146550        -1.193805
 H         1.344334        -2.003234        -0.700788
 H         1.905631        -1.898800         0.977956
 H         3.387374         1.476369        -2.344343
