19
Iteration:  3894
 C        -0.122667         0.323511        -0.063017
 C         1.312912        -0.006974        -0.023302
 C         2.007585         0.619244         1.178088
 C         3.361937         0.454216         0.521942
 C         3.255736        -0.814719        -0.241280
 O         4.339830        -1.459221        -0.718102
 C         1.865079        -1.471264        -0.078232
 C         2.663391         0.469040        -0.821252
 O         2.815245         0.773079        -2.204388
 H        -0.704211        -0.378691         0.722536
 H        -0.313496         1.330353         0.144769
 H        -0.704754         0.022433        -0.948581
 H         1.727734         1.737487         1.334749
 H         1.706151         0.164248         2.171583
 H         4.350885         0.950394         0.662310
 H         4.382072        -1.288178        -1.605082
 H         1.466144        -2.013894        -0.970512
 H         1.682758        -2.106024         0.812397
 H         2.545469         1.704700        -2.542242
