19
Iteration:  1309charge 0 multiplicity 1
 C        -0.117068         0.139821        -0.188811
 C         1.331001        -0.017200         0.125650
 C         2.064344         0.674031         1.267286
 C         3.387647         0.587575         0.411251
 C         3.273061        -0.759315        -0.237396
 O         4.316174        -1.393702        -0.950725
 C         1.950271        -1.436171         0.086538
 C         2.526793         0.366576        -0.806351
 O         2.679537         0.743468        -2.179805
 H        -0.748549        -0.386528         0.625419
 H        -0.338530         1.209778        -0.363843
 H        -0.257924        -0.341639        -1.187864
 H         1.854855         1.832336         1.276959
 H         2.126352         0.396771         2.319694
 H         4.329929         1.004022         0.679147
 H         5.156263        -1.438062        -0.230495
 H         1.688090        -2.014036        -0.823720
 H         1.810795        -2.074658         0.950966
 H         2.188247         1.576227        -2.369133
