19
Iteration:  4919
 C        -0.221603         0.277757        -0.146542
 C         1.319668         0.069925        -0.060584
 C         2.061666         0.610372         1.244030
 C         3.341929         0.441902         0.412776
 C         3.219637        -0.913255        -0.349177
 O         4.442195        -1.545077        -0.624813
 C         1.842394        -1.476720         0.014946
 C         2.646334         0.358414        -0.928462
 O         2.795291         1.070983        -2.140506
 H        -0.603381        -0.379914         0.620790
 H        -0.383830         1.392959         0.060809
 H        -0.658858         0.116508        -1.214524
 H         1.842252         1.639090         1.276147
 H         1.973451         0.117460         2.210236
 H         4.282953         0.893293         0.747772
 H         4.365534        -2.277548        -1.185623
 H         1.401403        -2.109205        -0.740597
 H         1.731321        -2.095262         0.901142
 H         2.475907         1.898307        -1.981554
