19
Iteration:  3205charge 0 multiplicity 1
 C        -0.113263         0.187078        -0.228846
 C         1.340744         0.023398         0.071172
 C         2.046730         0.642953         1.270940
 C         3.379321         0.441082         0.518009
 C         3.155725        -0.851979        -0.383115
 O         4.415692        -1.414054        -0.739224
 C         1.808444        -1.389994         0.089102
 C         2.621040         0.436791        -0.857656
 O         2.781128         0.846087        -2.190097
 H        -0.586398        -0.538376         0.449062
 H        -0.408668         1.220744        -0.023713
 H        -0.337279         0.107273        -1.215766
 H         1.798881         1.767804         1.267777
 H         1.894309         0.007690         2.181725
 H         4.446403         0.805766         0.651687
 H         4.231724        -1.993728        -1.590603
 H         1.301137        -1.911230        -0.714807
 H         1.614672        -2.020332         1.016133
 H         2.775289         1.799098        -2.210488
