19
Iteration:  3199
 C        -0.117957         0.227140        -0.224074
 C         1.304188        -0.003018         0.054345
 C         2.080320         0.692482         1.273609
 C         3.363142         0.451384         0.503198
 C         3.162382        -0.892979        -0.335764
 O         4.405287        -1.403989        -0.768414
 C         1.846676        -1.454036         0.089562
 C         2.635003         0.375913        -0.880581
 O         2.785804         0.888304        -2.166196
 H        -0.836734        -0.464613         0.375946
 H        -0.486938         1.257480         0.039765
 H        -0.289897         0.021481        -1.381134
 H         1.858368         1.749801         1.296506
 H         1.925966         0.131034         2.181305
 H         4.303128         0.900136         0.712710
 H         4.137280        -2.001999        -1.389141
 H         1.329085        -1.991887        -0.757147
 H         1.726256        -1.988936         1.021005
 H         2.737272         1.903861        -2.213054
