19
Iteration:  4992
 C        -0.094294         0.378876        -0.478639
 C         1.318931        -0.054268         0.112982
 C         2.070403         0.614692         1.255531
 C         3.352039         0.422043         0.505942
 C         3.238845        -0.870030        -0.325662
 O         4.357609        -1.560302        -0.794478
 C         1.947570        -1.462812         0.222715
 C         2.576638         0.331923        -0.857038
 O         2.655914         0.991363        -2.094519
 H        -0.889342        -0.067026         0.155264
 H        -0.114355         1.441035        -0.474131
 H        -0.210589         0.007543        -1.450482
 H         1.971434         1.785786         1.240906
 H         1.782876         0.243013         2.289924
 H         4.355002         0.914394         0.617198
 H         4.446830        -1.355317        -1.743910
 H         1.386970        -2.221982        -0.345676
 H         1.964367        -1.819971         1.275370
 H         2.904106         1.868693        -1.871911
