19
Iteration:  2045
 C        -0.132511         0.313300        -0.220635
 C         1.327885        -0.051888         0.131433
 C         2.120464         0.618033         1.201561
 C         3.363259         0.474401         0.367836
 C         3.179543        -0.951130        -0.414889
 O         4.488606        -1.462353        -0.626059
 C         1.862123        -1.540959         0.033462
 C         2.542934         0.314898        -0.936701
 O         2.681854         1.139255        -2.010491
 H        -0.928906        -0.267578         0.238785
 H        -0.340115         1.402353        -0.108812
 H        -0.228049         0.253114        -1.287246
 H         1.822732         1.645401         1.597926
 H         2.146709         0.038795         2.140065
 H         4.397073         0.632437         0.457293
 H         4.768290        -1.422564        -1.606804
 H         1.400254        -2.159430        -0.749477
 H         1.674702        -2.008034         1.046244
 H         2.138432         0.969158        -2.780410
