19
Iteration:  1026charge 0 multiplicity 1
 C        -0.100923         0.195492        -0.185941
 C         1.340772        -0.033191         0.049608
 C         2.130235         0.756474         1.191566
 C         3.394845         0.633699         0.323841
 C         3.301835        -0.884250        -0.325549
 O         4.446345        -1.564894        -0.737349
 C         1.917050        -1.506072         0.135305
 C         2.598237         0.398882        -0.883625
 O         2.429386         0.988625        -2.131099
 H        -0.683217        -0.274926         0.760134
 H        -0.589109         1.145686        -0.405416
 H        -0.357214        -0.422443        -1.019276
 H         1.950065         1.780577         1.183514
 H         2.083604         0.305334         2.250968
 H         4.504383         0.997608         0.382135
 H         4.263404        -2.545067        -0.442884
 H         1.522290        -2.146901        -0.680838
 H         1.839245        -1.988593         1.099793
 H         3.202471         1.670749        -2.205200
