19
Iteration:  4599
 C        -0.115678         0.277991        -0.213636
 C         1.357868        -0.049476         0.037030
 C         2.065506         0.632024         1.208033
 C         3.312029         0.498689         0.440030
 C         3.241683        -0.830797        -0.298045
 O         4.328602        -1.667062        -0.717652
 C         1.921787        -1.483653         0.007187
 C         2.566686         0.393261        -0.922869
 O         2.704124         1.148509        -2.054108
 H        -0.760050        -0.051623         0.548540
 H        -0.068060         1.352204        -0.391087
 H        -0.480002        -0.204941        -1.142834
 H         1.694053         1.615133         1.451867
 H         1.927119         0.107668         2.250808
 H         4.256901         1.054724         0.581976
 H         5.162876        -1.122064        -0.446447
 H         1.696058        -2.098364        -0.881515
 H         1.617608        -2.131947         0.871279
 H         2.963932         0.550723        -2.888701
