19
Iteration:  2755charge 0 multiplicity 1
 C        -0.134241         0.286368        -0.333975
 C         1.326108         0.079249         0.011134
 C         2.074792         0.653920         1.281316
 C         3.472279         0.347756         0.484818
 C         3.182044        -0.836466        -0.356072
 O         4.427935        -1.476402        -0.764400
 C         1.895850        -1.512773         0.105386
 C         2.621833         0.425183        -0.820833
 O         2.665209         0.968094        -2.092411
 H        -0.719394        -0.220181         0.517885
 H        -0.626341         1.268066        -0.611535
 H        -0.284375        -0.374666        -1.175395
 H         1.838487         1.760615         1.375929
 H         1.735844         0.062791         2.184765
 H         4.397457         0.701115         0.783838
 H         4.267185        -2.026515        -1.566472
 H         1.392545        -2.126453        -0.623089
 H         1.902682        -2.018212         1.085380
 H         2.089355         1.820383        -2.026336
