19
Iteration:  1167charge 0 multiplicity 1
 C        -0.048910         0.339078        -0.243015
 C         1.327183        -0.124164         0.077207
 C         2.044355         0.660841         1.239684
 C         3.359935         0.637381         0.409015
 C         3.332016        -0.870652        -0.213788
 O         4.460678        -1.454668        -0.858897
 C         2.015165        -1.481452         0.207117
 C         2.441146         0.240448        -0.842085
 O         2.443358         0.843977        -2.174351
 H        -0.780513         0.205746         0.583198
 H        -0.040186         1.338125        -0.618607
 H        -0.393171        -0.183144        -1.084683
 H         1.536848         1.676491         1.149333
 H         2.234805         0.359231         2.276700
 H         4.150930         1.249499         0.269868
 H         4.947656        -0.778545        -1.376663
 H         1.653635        -2.168791        -0.650338
 H         1.931445        -1.932119         1.241771
 H         3.369771         1.203176        -2.171265
