19
Iteration:  1214charge 0 multiplicity 1
 C        -0.049987         0.029399        -0.211324
 C         1.384170         0.050065         0.107997
 C         2.141600         0.745600         1.192548
 C         3.365630         0.531961         0.324974
 C         3.265600        -0.845323        -0.356910
 O         4.453741        -1.617964        -0.591781
 C         1.933929        -1.438880         0.132475
 C         2.609698         0.417846        -0.967504
 O         2.341291         1.054087        -2.135491
 H        -0.607504        -0.339998         0.719250
 H        -0.426000         0.976259        -0.529236
 H        -0.213975        -0.633495        -1.029996
 H         1.967144         1.754406         1.173369
 H         1.994492         0.344309         2.246718
 H         4.248230         1.229737         0.495923
 H         4.735859        -1.765880        -1.401905
 H         1.454160        -2.056238        -0.634983
 H         1.915066        -1.891318         1.189051
 H         3.132092         1.546026        -2.557747
