19
Iteration:  2259
 C        -0.062060         0.283898        -0.301269
 C         1.369820        -0.120350         0.021241
 C         2.035326         0.649656         1.311885
 C         3.308264         0.564889         0.374195
 C         3.257397        -0.881467        -0.321772
 O         4.292989        -1.591150        -0.768135
 C         1.976844        -1.597319         0.086631
 C         2.550354         0.329398        -0.927057
 O         2.644703         1.160111        -2.053224
 H        -0.711012        -0.199508         0.479387
 H        -0.185385         1.421654        -0.261855
 H        -0.382678        -0.074103        -1.303473
 H         1.506730         1.621630         1.322515
 H         1.989621         0.040905         2.316381
 H         4.226602         1.070936         0.507990
 H         5.081702        -1.171021        -0.676594
 H         1.589922        -2.213750        -0.800161
 H         2.018057        -2.111799         1.054767
 H         3.359839         1.791861        -1.732419
