19
Iteration:  1666charge 0 multiplicity 1
 C        -0.062092         0.129774        -0.339640
 C         1.395784         0.009344         0.092421
 C         2.148808         0.682240         1.336076
 C         3.397697         0.548629         0.456566
 C         3.209646        -0.836542        -0.368817
 O         4.362050        -1.605845        -0.674905
 C         1.876376        -1.458001         0.025570
 C         2.627790         0.441233        -0.878122
 O         2.544230         1.016983        -2.099719
 H        -0.862910        -0.507905         0.202181
 H        -0.430932         1.150405        -0.609487
 H        -0.104298        -0.569712        -1.229050
 H         1.716111         1.634766         1.590582
 H         2.229141        -0.032741         2.237268
 H         4.458740         0.849839         0.665318
 H         4.359662        -1.409445        -1.741518
 H         1.464923        -1.925383        -0.903297
 H         1.684560        -1.959971         0.973705
 H         2.593511         2.020641        -1.976682
