19
Iteration:  3392charge 0 multiplicity 1
 C        -0.095067         0.330674        -0.161877
 C         1.340706        -0.130873         0.095998
 C         2.084664         0.661283         1.283974
 C         3.372539         0.446608         0.328720
 C         3.151684        -0.942281        -0.375270
 O         4.450995        -1.385432        -0.642358
 C         1.773556        -1.573327         0.034049
 C         2.538550         0.410385        -0.903313
 O         2.783993         0.994277        -2.129994
 H        -0.953051        -0.212144         0.275769
 H        -0.263482         1.415032         0.055624
 H        -0.221812         0.440674        -1.328571
 H         1.753012         1.743450         1.163982
 H         2.164123         0.211580         2.336440
 H         4.368764         0.803003         0.256684
 H         4.459912        -2.195509        -1.370771
 H         1.337186        -2.182329        -0.768614
 H         1.688624        -2.084785         0.995581
 H         2.650209         1.917384        -2.183713
