19
Iteration:  4918charge 0 multiplicity 1
 C        -0.221304         0.281329        -0.140131
 C         1.321582         0.061404        -0.063230
 C         2.058146         0.609604         1.239523
 C         3.337866         0.436493         0.413467
 C         3.214948        -0.907000        -0.345647
 O         4.442483        -1.541174        -0.627661
 C         1.839788        -1.474796         0.017703
 C         2.651012         0.353317        -0.934749
 O         2.798215         1.068246        -2.136089
 H        -0.600781        -0.336402         0.602622
 H        -0.391480         1.379115         0.065214
 H        -0.640524         0.115728        -1.184161
 H         1.821319         1.638814         1.270481
 H         1.984770         0.074297         2.183385
 H         4.282090         0.916215         0.733796
 H         4.396887        -2.289611        -1.191912
 H         1.416860        -2.089338        -0.743789
 H         1.725751        -2.046293         0.913014
 H         2.476045         1.910490        -1.978318
