19
Iteration:  2321
 C        -0.072652         0.164582        -0.281316
 C         1.369218        -0.000734         0.062544
 C         2.040176         0.546756         1.307474
 C         3.406402         0.477977         0.521888
 C         3.183500        -0.803578        -0.363037
 O         4.290710        -1.492726        -0.792532
 C         1.846731        -1.442339         0.029480
 C         2.611762         0.473818        -0.844392
 O         2.812469         0.960693        -2.106528
 H        -0.705471         0.284347         0.662089
 H        -0.311146         1.011469        -0.966808
 H        -0.442940        -0.720301        -0.850031
 H         1.657079         1.529228         1.619029
 H         1.894538        -0.005911         2.176745
 H         4.368079         0.720461         0.853793
 H         4.709000        -1.000525        -1.431732
 H         1.358578        -1.915698        -0.809531
 H         1.813431        -2.045803         0.960922
 H         2.130844         1.685091        -2.324177
