19
Iteration:  1417charge 0 multiplicity 1
 C        -0.154437         0.053555        -0.160729
 C         1.329467        -0.018402         0.021804
 C         2.136515         0.704331         1.183367
 C         3.393976         0.580163         0.317352
 C         3.290586        -0.868077        -0.320789
 O         4.362648        -1.619205        -0.727485
 C         1.974504        -1.447147         0.133066
 C         2.589644         0.363333        -0.960772
 O         2.516301         1.114079        -2.118842
 H        -0.627852        -0.549491         0.665253
 H        -0.763375         1.040712        -0.279999
 H        -0.296481        -0.407465        -1.233265
 H         1.802249         1.827513         1.272164
 H         2.127765         0.337649         2.178435
 H         4.411855         1.055066         0.578685
 H         4.947161        -1.634735         0.027430
 H         1.579617        -2.124223        -0.661639
 H         1.925502        -1.916180         1.115167
 H         2.838105         2.067019        -1.995263
