19
Iteration:  2202charge 0 multiplicity 1
 C        -0.040770         0.176407        -0.246566
 C         1.417513        -0.052393         0.050970
 C         2.141089         0.689785         1.220548
 C         3.398893         0.519459         0.404925
 C         3.206488        -0.906007        -0.280793
 O         4.298584        -1.661971        -0.657926
 C         1.867082        -1.462426        -0.160597
 C         2.616195         0.400442        -0.857142
 O         2.617361         1.157108        -2.027608
 H        -0.767440        -0.549401         0.291247
 H        -0.338090         1.141810        -0.032759
 H        -0.233202         0.007082        -1.340524
 H         1.782447         1.764835         1.330565
 H         2.044637         0.246364         2.276841
 H         4.284529         0.981492         0.747212
 H         5.195954        -1.176385        -0.480608
 H         1.517578        -1.818511        -1.153219
 H         1.678452        -2.284481         0.577747
 H         1.641499         1.408560        -2.125293
