19
Iteration:  4081charge 0 multiplicity 1
 C        -0.177312         0.270876        -0.120604
 C         1.282969         0.065774         0.072260
 C         2.035239         0.656652         1.216556
 C         3.370598         0.483791         0.497063
 C         3.234160        -0.831553        -0.217660
 O         4.372809        -1.415215        -0.797406
 C         1.851122        -1.485701        -0.052388
 C         2.578581         0.409030        -0.838182
 O         2.875829         0.743686        -2.171931
 H        -0.725341        -0.334498         0.543267
 H        -0.327137         1.357950         0.033687
 H        -0.533878        -0.014988        -1.132993
 H         1.731613         1.783606         1.450512
 H         1.940109         0.182777         2.267507
 H         4.307668         0.996548         0.785209
 H         4.220296        -1.662846        -1.783094
 H         1.556031        -1.845349        -1.061133
 H         1.785894        -2.272652         0.698831
 H         2.707562         1.750224        -2.278360
