19
Iteration:  3198
 C        -0.120295         0.234181        -0.228026
 C         1.302710        -0.004067         0.053461
 C         2.085502         0.694275         1.270918
 C         3.356628         0.452338         0.496972
 C         3.169424        -0.895901        -0.325476
 O         4.401929        -1.402372        -0.771179
 C         1.851225        -1.465823         0.086041
 C         2.634713         0.367872        -0.882947
 O         2.786573         0.895440        -2.161896
 H        -0.884846        -0.470162         0.368255
 H        -0.497949         1.277235         0.048062
 H        -0.287488         0.009583        -1.365987
 H         1.853501         1.782172         1.324021
 H         1.934792         0.178920         2.186821
 H         4.305918         0.912931         0.725284
 H         4.128276        -2.034754        -1.391993
 H         1.338226        -2.013888        -0.764394
 H         1.750081        -1.995413         1.043615
 H         2.731052         1.897736        -2.199880
