19
Iteration:  4771charge 0 multiplicity 1
 C        -0.144643         0.331894        -0.297830
 C         1.311458        -0.013668         0.011994
 C         2.122007         0.583148         1.174140
 C         3.393002         0.398115         0.449275
 C         3.259206        -0.896109        -0.309762
 O         4.450412        -1.506022        -0.645228
 C         1.802140        -1.488701         0.043597
 C         2.616912         0.398378        -0.886361
 O         2.634584         1.032215        -2.093687
 H        -0.843077        -0.347805         0.260497
 H        -0.366969         1.322787         0.154817
 H        -0.246023         0.397518        -1.373160
 H         1.896944         1.739051         1.297256
 H         1.902811         0.109822         2.213947
 H         4.386531         0.713864         0.786212
 H         4.011837        -2.008897        -1.437494
 H         1.441206        -2.173362        -0.731446
 H         1.785476        -1.847954         1.043235
 H         3.090430         1.945507        -1.915311
