19
Iteration:  4444charge 0 multiplicity 1
 C        -0.170034         0.318715        -0.234977
 C         1.350092        -0.107821        -0.011154
 C         2.090441         0.669822         1.202377
 C         3.369320         0.502956         0.397474
 C         3.288422        -0.871614        -0.288567
 O         4.424751        -1.585498        -0.622598
 C         1.892473        -1.511840        -0.010408
 C         2.618354         0.341196        -0.845783
 O         2.548374         1.126139        -2.042660
 H        -0.655799         0.440315         0.656102
 H        -0.319826         1.273737        -0.828994
 H        -0.562330        -0.473431        -0.834687
 H         1.899670         1.785905         1.186956
 H         2.210684         0.255480         2.301408
 H         4.339516         0.923211         0.637831
 H         4.489104        -1.789306        -1.504457
 H         1.519375        -1.873118        -1.006264
 H         1.659368        -2.183556         0.829464
 H         3.314000         0.924053        -2.592902
