19
Iteration:  1184charge 0 multiplicity 1
 C        -0.101475         0.252521        -0.256496
 C         1.346690        -0.077798         0.112590
 C         2.076629         0.734829         1.197116
 C         3.326083         0.590683         0.327574
 C         3.271502        -0.819985        -0.303998
 O         4.419851        -1.498765        -0.748067
 C         2.031059        -1.595796         0.228299
 C         2.610826         0.327007        -0.914867
 O         2.404644         0.914261        -2.109187
 H        -0.687826         0.211441         0.673695
 H        -0.059358         1.360634        -0.581004
 H        -0.568443        -0.299742        -1.178333
 H         1.695371         1.783184         1.345748
 H         2.062024         0.191049         2.172367
 H         4.354033         1.113002         0.595604
 H         5.004174        -0.957688        -1.458232
 H         1.683259        -2.240648        -0.535598
 H         2.121993        -1.998848         1.228501
 H         3.191078         1.272684        -2.530536
