19
Iteration:  4395
 C        -0.159121         0.320899        -0.267149
 C         1.348951         0.012433         0.038785
 C         2.098216         0.565482         1.211052
 C         3.388424         0.436382         0.378351
 C         3.217664        -0.881488        -0.326894
 O         4.510390        -1.511214        -0.610950
 C         1.847476        -1.497291         0.054587
 C         2.616381         0.374174        -0.889121
 O         2.551322         1.075217        -2.150513
 H        -0.769789         0.409874         0.717682
 H        -0.167525         1.298008        -0.641347
 H        -0.581333        -0.304057        -1.065990
 H         1.880468         1.643270         1.554674
 H         2.050102        -0.138690         2.075206
 H         4.386875         0.790248         0.563412
 H         4.359760        -2.497132        -0.988322
 H         1.400198        -2.070681        -0.762167
 H         1.841737        -2.029952         1.023280
 H         3.053190         1.940538        -1.993423
