19
Iteration:  3450
 C        -0.089273         0.209960        -0.216751
 C         1.361674         0.063012         0.052219
 C         2.052871         0.616707         1.256561
 C         3.358143         0.503431         0.554593
 C         3.268620        -0.807369        -0.257274
 O         4.237054        -1.568391        -0.904896
 C         1.893425        -1.411842         0.056483
 C         2.573896         0.510639        -0.822346
 O         2.831754         0.784587        -2.147193
 H        -0.823228        -0.203656         0.549023
 H        -0.382932         1.250716        -0.401217
 H        -0.359208        -0.349941        -1.026201
 H         1.720934         1.712849         1.581569
 H         1.751826         0.162985         2.272749
 H         4.308151         0.995046         0.932737
 H         4.518326        -1.077698        -1.665726
 H         1.496315        -1.941175        -0.878113
 H         1.755789        -1.984371         0.993950
 H         2.623836         1.779874        -2.313508
