19
Iteration:   648charge 0 multiplicity 1
 C        -0.073775         0.260930        -0.247284
 C         1.387424        -0.012393         0.072233
 C         2.181281         0.749742         1.117298
 C         3.350348         0.529451         0.277372
 C         3.296833        -0.886216        -0.218978
 O         4.369480        -1.585591        -0.800654
 C         1.959993        -1.490325         0.198523
 C         2.502656         0.256095        -0.933121
 O         2.547829         1.089628        -2.007211
 H        -0.675036         0.328578         0.599594
 H        -0.200120         1.308743        -0.606136
 H        -0.603858        -0.394921        -1.067974
 H         1.970335         1.931810         1.060505
 H         1.959809         0.392919         2.152725
 H         4.284441         1.030187         0.259836
 H         4.958078        -2.138881        -0.078552
 H         1.517587        -2.211158        -0.549824
 H         1.716135        -1.881777         1.185402
 H         1.877957         0.713907        -2.527655
