19
Iteration:  3011
 C        -0.129154         0.171895        -0.228278
 C         1.393031         0.094360         0.031239
 C         2.077565         0.664232         1.329754
 C         3.381487         0.520287         0.498156
 C         3.216196        -0.794273        -0.289269
 O         4.250698        -1.554541        -0.758577
 C         1.903689        -1.421028        -0.031997
 C         2.612299         0.437056        -0.817018
 O         2.737526         0.827583        -2.160386
 H        -0.497952        -0.595720         0.354480
 H        -0.693097         1.099829         0.023761
 H        -0.217408        -0.206006        -1.231686
 H         1.883957         1.759087         1.357727
 H         2.025658        -0.026608         2.374836
 H         4.287604         1.079262         0.523014
 H         4.303504        -1.327633        -1.654891
 H         1.560597        -1.944403        -0.951283
 H         1.685087        -2.006324         0.856856
 H         3.124929         1.753910        -2.160909
