19
Iteration:  4307
 C        -0.124018         0.209906        -0.273466
 C         1.282686         0.040525         0.116616
 C         2.058515         0.649963         1.296391
 C         3.384450         0.544766         0.464056
 C         3.184313        -0.788623        -0.257544
 O         4.237512        -1.535653        -0.904141
 C         1.871891        -1.453281         0.125445
 C         2.568807         0.413106        -0.798779
 O         2.868490         0.825093        -2.162928
 H        -0.668613        -0.639324         0.122342
 H        -0.649426         1.019448        -0.037521
 H        -0.076551         0.034745        -1.314683
 H         1.909843         1.708511         1.230287
 H         2.248190         0.142373         2.230966
 H         4.389715         0.949606         0.727908
 H         4.773722        -0.864105        -1.447539
 H         1.537217        -2.039117        -0.745281
 H         1.796088        -2.059996         1.051803
 H         3.055608         1.742256        -2.121892
