19
Iteration:  3881
 C        -0.171514         0.300446        -0.094634
 C         1.347273         0.054996        -0.016567
 C         1.933045         0.584925         1.268323
 C         3.360777         0.539847         0.546593
 C         3.271959        -0.844485        -0.217499
 O         4.417444        -1.508184        -0.803557
 C         1.832555        -1.391740        -0.005580
 C         2.617467         0.417022        -0.884354
 O         2.858552         0.768374        -2.224797
 H        -0.551054        -0.146846         0.845028
 H        -0.465759         1.340612        -0.044821
 H        -0.531569        -0.082072        -1.020724
 H         1.605352         1.764185         1.426025
 H         1.910186        -0.148646         2.173495
 H         4.359748         0.901779         0.882986
 H         4.271112        -1.395362        -1.862863
 H         1.488338        -1.808731        -0.965701
 H         1.569833        -2.069556         0.841327
 H         2.379279         1.571272        -2.282067
