19
Iteration:   611charge 0 multiplicity 1
 C         0.050409         0.358314        -0.282144
 C         1.357776        -0.041617         0.112638
 C         2.147083         0.715897         1.280427
 C         3.332985         0.523934         0.374795
 C         3.206714        -0.859795        -0.383587
 O         4.390131        -1.569518        -0.813407
 C         1.924523        -1.518104         0.204460
 C         2.554446         0.402726        -0.886174
 O         2.440563         0.966839        -2.129146
 H        -0.835773         0.423927         0.528073
 H         0.232970         1.248695        -0.876111
 H        -0.229074        -0.339235        -0.998690
 H         1.847868         1.820979         1.154701
 H         2.054148         0.333849         2.341345
 H         4.425631         0.766538         0.560069
 H         5.147676        -1.631864        -0.020463
 H         1.405481        -2.282550        -0.346795
 H         2.145879        -2.063947         1.236953
 H         2.352703         0.422710        -2.852710
