19
Iteration:   268
 C        -0.027581         0.269558        -0.283798
 C         1.418900         0.013802         0.126601
 C         2.201452         0.834604         1.316929
 C         3.419548         0.588523         0.353405
 C         3.209412        -0.921032        -0.332670
 O         4.326136        -1.635542        -0.773234
 C         1.921760        -1.507993         0.157637
 C         2.580751         0.322839        -0.916803
 O         2.368850         0.993863        -2.165089
 H        -0.768523        -0.289124         0.147051
 H        -0.187373         1.353725        -0.126684
 H        -0.126834         0.146359        -1.440801
 H         1.923453         1.873256         1.453606
 H         2.101934         0.364858         2.203343
 H         4.430093         1.016132         0.602866
 H         4.670416        -2.086466         0.055428
 H         1.636730        -2.124560        -0.719479
 H         1.948124        -2.087358         1.090856
 H         3.282572         0.925591        -2.617531
