19
Iteration:  4776
 C        -0.127396         0.334221        -0.311045
 C         1.307469        -0.006247         0.017445
 C         2.084413         0.606551         1.179827
 C         3.384191         0.419277         0.420465
 C         3.227929        -0.886119        -0.292908
 O         4.425822        -1.507499        -0.689898
 C         1.827525        -1.488465         0.079224
 C         2.636738         0.367207        -0.861847
 O         2.661005         1.026836        -2.071253
 H        -0.811704        -0.318147         0.205967
 H        -0.323339         1.416469         0.033424
 H        -0.345666         0.459645        -1.451340
 H         1.846763         1.587965         1.226710
 H         2.170210         0.061270         2.077872
 H         4.332653         0.696703         0.867632
 H         4.137173        -1.949102        -1.450679
 H         1.515308        -2.239718        -0.665434
 H         1.849197        -2.074337         1.080589
 H         2.888480         1.920994        -1.822662
