19
Iteration:  2844
 C        -0.126911         0.280410        -0.156369
 C         1.333725        -0.020764         0.003792
 C         2.054979         0.664424         1.170511
 C         3.313303         0.347699         0.461401
 C         3.158036        -0.900284        -0.410738
 O         4.423753        -1.418629        -0.700683
 C         1.836911        -1.526377         0.105121
 C         2.627931         0.412681        -0.857589
 O         2.790841         0.964246        -2.170767
 H        -0.785574        -0.331449         0.430723
 H        -0.275283         1.327429         0.237433
 H        -0.537682         0.107402        -1.128333
 H         1.933370         1.789908         1.327968
 H         1.953452         0.206828         2.252399
 H         4.291886         0.655194         0.953844
 H         4.435113        -1.375929        -1.801581
 H         1.304805        -2.289664        -0.424045
 H         2.022501        -1.865867         1.156028
 H         2.591115         1.976933        -2.164033
