19
Iteration:  4996
 C        -0.056116         0.397641        -0.452132
 C         1.298207        -0.070716         0.104234
 C         2.061551         0.650599         1.241752
 C         3.339094         0.406821         0.494216
 C         3.297313        -0.866398        -0.368300
 O         4.333416        -1.513033        -0.785007
 C         1.918227        -1.500042         0.222272
 C         2.542021         0.341877        -0.852311
 O         2.681972         0.943869        -2.077198
 H        -0.769508        -0.009084         0.180807
 H         0.005978         1.529206        -0.423114
 H        -0.274443        -0.153446        -1.462116
 H         1.826485         1.774892         1.338174
 H         1.730674         0.409978         2.288976
 H         4.348101         0.741927         0.586349
 H         4.391466        -1.319969        -1.789979
 H         1.396275        -2.233130        -0.389305
 H         2.091976        -1.886097         1.211312
 H         2.937891         1.953132        -1.724493
