19
Iteration:  2277charge 0 multiplicity 1
 C        -0.097055         0.285540        -0.271105
 C         1.298074        -0.127659         0.097176
 C         1.991730         0.701431         1.152955
 C         3.259259         0.522568         0.451855
 C         3.243895        -0.903863        -0.319966
 O         4.411401        -1.532640        -0.912819
 C         1.929013        -1.555855         0.068736
 C         2.567076         0.322082        -0.809981
 O         2.703456         1.038855        -1.950750
 H        -0.856199         0.182903         0.537044
 H        -0.032584         1.294791        -0.529089
 H        -0.459363        -0.178122        -1.192482
 H         1.739271         1.773184         1.217693
 H         1.986039         0.379418         2.155657
 H         4.188249         1.063135         0.459108
 H         5.143955        -1.029247        -0.966657
 H         1.635718        -2.060673        -0.829640
 H         1.795116        -2.113139         1.019050
 H         3.447948         1.675374        -1.793365
