19
Iteration:  3273
 C        -0.085641         0.341216        -0.208534
 C         1.318233        -0.058642        -0.006250
 C         1.964514         0.719228         1.283675
 C         3.304033         0.478720         0.505739
 C         3.203063        -0.862691        -0.412755
 O         4.319008        -1.524538        -0.817213
 C         1.984059        -1.571325         0.133397
 C         2.586141         0.315693        -0.900508
 O         2.818398         0.933689        -2.104559
 H        -0.585685         0.144379         0.767139
 H        -0.233118         1.424033        -0.383805
 H        -0.601221        -0.034614        -0.996057
 H         1.676179         1.811498         1.137898
 H         1.922890         0.154394         2.172313
 H         4.170505         1.082445         0.635790
 H         4.995969        -0.924849        -1.132128
 H         1.416012        -2.272740        -0.543467
 H         2.033513        -2.108129         1.119344
 H         2.453186         1.846378        -2.074851
