19
Iteration:  4733
 C        -0.119387         0.254202        -0.152703
 C         1.346983        -0.057482         0.007656
 C         2.143726         0.626132         1.215651
 C         3.376597         0.567971         0.408277
 C         3.198939        -0.830339        -0.337904
 O         4.378423        -1.620194        -0.505782
 C         1.856607        -1.477663        -0.162689
 C         2.633984         0.418335        -0.914176
 O         2.614733         1.102997        -2.070559
 H        -0.719302        -0.492014         0.264152
 H        -0.476874         1.235231         0.058564
 H        -0.372661         0.197744        -1.230911
 H         1.893657         1.640708         1.350866
 H         2.046355         0.011941         2.138905
 H         4.423803         0.705212         0.639748
 H         4.381589        -2.202103        -1.308138
 H         1.293101        -1.962407        -0.978427
 H         1.605534        -2.075237         0.774916
 H         3.519878         1.238781        -2.550581
