19
Iteration:  3850
 C        -0.148186         0.261172        -0.300272
 C         1.318078        -0.012951         0.122122
 C         2.125021         0.614072         1.280974
 C         3.407975         0.482628         0.409352
 C         3.126826        -0.818797        -0.311249
 O         4.325539        -1.441131        -0.785827
 C         1.892288        -1.498339         0.084855
 C         2.508657         0.441750        -0.812134
 O         2.864432         0.848606        -2.130815
 H        -0.867991         0.183143         0.726225
 H        -0.237521         1.280753        -0.629198
 H        -0.348423        -0.361238        -1.190840
 H         1.666478         1.610560         1.438630
 H         1.979294         0.290550         2.312459
 H         4.445209         0.852453         0.588702
 H         4.220525        -1.598640        -1.670114
 H         1.394195        -2.049158        -0.743700
 H         1.826444        -2.206150         0.933673
 H         2.856884         1.868108        -2.085072
