19
Iteration:  3230charge 0 multiplicity 1
 C        -0.217327         0.215323        -0.165971
 C         1.330964         0.088488         0.017668
 C         2.140231         0.611250         1.316437
 C         3.351709         0.517333         0.532143
 C         3.191838        -0.820673        -0.272940
 O         4.328734        -1.512523        -0.690239
 C         1.884944        -1.392826        -0.090484
 C         2.657092         0.467641        -0.862444
 O         2.761065         0.764846        -2.219607
 H        -0.570784        -0.572833         0.667479
 H        -0.632367         1.290708        -0.144653
 H        -0.483518        -0.072133        -1.234765
 H         1.918696         1.682672         1.681625
 H         2.099824        -0.122685         2.082764
 H         4.319751         0.932681         0.746837
 H         4.626762        -0.994623        -1.585601
 H         1.559305        -1.983140        -1.029688
 H         1.662869        -2.097369         0.768200
 H         2.728218         1.684081        -2.388400
