19
Iteration:  4082charge 0 multiplicity 1
 C        -0.174567         0.272692        -0.122934
 C         1.284417         0.060321         0.074474
 C         2.037165         0.658179         1.219505
 C         3.365841         0.483802         0.499141
 C         3.230774        -0.829542        -0.225432
 O         4.372403        -1.417452        -0.802171
 C         1.851293        -1.486046        -0.050447
 C         2.586791         0.411471        -0.838684
 O         2.878123         0.740973        -2.175836
 H        -0.729545        -0.347950         0.562176
 H        -0.383613         1.323388         0.019258
 H        -0.523681         0.008589        -1.132096
 H         1.734818         1.784313         1.495390
 H         1.911972         0.212775         2.305793
 H         4.304830         1.002843         0.794899
 H         4.211746        -1.637983        -1.742503
 H         1.562363        -1.828413        -1.069703
 H         1.774328        -2.260109         0.716586
 H         2.693881         1.737948        -2.271818
