19
Iteration:  1273charge 0 multiplicity 1
 C        -0.086617         0.120728        -0.128584
 C         1.345823        -0.038998         0.075808
 C         2.003286         0.760525         1.216468
 C         3.296869         0.589972         0.310020
 C         3.272991        -0.911566        -0.388012
 O         4.489014        -1.479468        -0.787016
 C         1.998626        -1.493491         0.236940
 C         2.523908         0.305998        -1.012506
 O         2.592044         1.034411        -2.146902
 H        -0.750676        -0.452541         0.487496
 H        -0.391397         1.222052         0.167650
 H        -0.447526        -0.129989        -1.245319
 H         1.766994         1.861596         1.021134
 H         1.829758         0.466825         2.249177
 H         4.310102         0.829434         0.627505
 H         4.558888        -2.515655        -0.381503
 H         1.570812        -2.353099        -0.288687
 H         2.133077        -1.774368         1.270916
 H         2.603574         2.000269        -2.004940
