19
Iteration:   989charge 0 multiplicity 1
 C        -0.098158         0.315633        -0.278138
 C         1.381796         0.000580         0.118642
 C         2.144687         0.663564         1.299327
 C         3.405668         0.588566         0.427662
 C         3.241411        -0.806635        -0.311007
 O         4.377835        -1.448247        -0.884404
 C         1.972731        -1.547853         0.183453
 C         2.560513         0.391312        -0.859488
 O         2.523851         0.804963        -2.176929
 H        -0.848095         0.180842         0.463577
 H        -0.078643         1.375560        -0.711309
 H        -0.321790        -0.442674        -1.131167
 H         1.822595         1.770644         1.284786
 H         2.102851         0.256231         2.265896
 H         4.435754         0.876132         0.493573
 H         4.550945        -2.125729        -0.222258
 H         1.649310        -2.260261        -0.654404
 H         1.869038        -2.103587         1.175262
 H         1.825038         1.532740        -2.259151
