19
Iteration:  3828charge 0 multiplicity 1
 C        -0.075826         0.258009        -0.350015
 C         1.351047        -0.046554         0.089240
 C         2.077238         0.732148         1.251541
 C         3.321035         0.438318         0.447593
 C         3.183367        -0.925751        -0.290421
 O         4.365015        -1.474789        -0.810902
 C         1.855415        -1.498205         0.149037
 C         2.638352         0.293892        -0.872398
 O         2.698376         1.029317        -2.091826
 H        -0.851002         0.204937         0.602341
 H        -0.142985         1.274782        -0.718570
 H        -0.202306        -0.341581        -1.246873
 H         1.952393         1.771830         1.464287
 H         2.102232         0.406323         2.284190
 H         4.314526         0.892102         0.590889
 H         4.126626        -1.766685        -1.789304
 H         1.230871        -2.175407        -0.452766
 H         1.850170        -1.968934         1.155219
 H         3.134246         1.832651        -1.844787
