19
Iteration:  2665
 C        -0.087365         0.177879        -0.303561
 C         1.400666         0.037669         0.066189
 C         2.114188         0.696771         1.321650
 C         3.345495         0.466104         0.449035
 C         3.212710        -0.923611        -0.275965
 O         4.391476        -1.493392        -0.716641
 C         1.825184        -1.437450        -0.027823
 C         2.586735         0.431242        -0.874880
 O         2.613585         1.008693        -2.073050
 H        -0.589374        -0.349817         0.577502
 H        -0.476838         1.178987        -0.464089
 H        -0.338093        -0.372701        -1.198543
 H         1.983827         1.837057         1.411321
 H         2.221183         0.094516         2.249677
 H         4.421274         0.765203         0.693814
 H         4.164334        -2.135205        -1.383352
 H         1.461093        -1.777502        -1.027421
 H         1.567810        -2.208925         0.673874
 H         3.465571         1.376620        -2.449143
