19
Iteration:  1286charge 0 multiplicity 1
 C        -0.185636         0.166908        -0.167306
 C         1.335790        -0.072007         0.027112
 C         2.078503         0.771547         1.163502
 C         3.314386         0.549325         0.410478
 C         3.245198        -0.856715        -0.333774
 O         4.441827        -1.414614        -0.861130
 C         1.994995        -1.523134         0.220917
 C         2.615039         0.322336        -0.871546
 O         2.628683         0.932564        -2.169661
 H        -0.625798        -0.529180         0.587979
 H        -0.472325         1.246727         0.018043
 H        -0.552501        -0.108359        -1.217087
 H         1.693063         1.880440         1.266155
 H         2.174895         0.391280         2.173438
 H         4.205691         1.031039         0.437959
 H         4.608247        -2.164592        -0.366579
 H         1.518566        -2.302404        -0.401560
 H         2.015778        -1.843582         1.244488
 H         2.268380         1.841371        -1.961002
