19
Iteration:  4707
 C        -0.111562         0.288605        -0.249793
 C         1.332087         0.008430        -0.010230
 C         2.055378         0.608844         1.247160
 C         3.309111         0.463822         0.435269
 C         3.269530        -0.860142        -0.277430
 O         4.428822        -1.634249        -0.630250
 C         1.932083        -1.483922         0.005670
 C         2.561769         0.401527        -0.933107
 O         2.660890         1.183371        -2.067350
 H        -0.633871        -0.244347         0.607043
 H        -0.455537         1.397240        -0.217736
 H        -0.594008        -0.076260        -1.239128
 H         1.959940         1.663246         1.446800
 H         1.897994        -0.050676         2.019252
 H         4.312537         0.880003         0.659017
 H         4.132109        -2.189892        -1.434999
 H         1.402184        -2.019310        -0.800809
 H         1.811913        -1.990315         0.991742
 H         3.290332         0.757177        -2.775559
