19
Iteration:   899charge 0 multiplicity 1
 C        -0.103497         0.070832        -0.054469
 C         1.355744         0.066498         0.001840
 C         2.152548         0.706997         1.205271
 C         3.354670         0.553974         0.344098
 C         3.231919        -0.807428        -0.309542
 O         4.333022        -1.721536        -0.697722
 C         1.897755        -1.381986         0.130438
 C         2.608084         0.382256        -1.009667
 O         2.611211         1.000345        -2.220950
 H        -0.591204        -0.519861         0.762915
 H        -0.466621         1.157824        -0.006080
 H        -0.654620        -0.360718        -0.999410
 H         1.963826         1.828774         1.410004
 H         1.975994         0.231720         2.136162
 H         4.205572         1.282146         0.368792
 H         5.223919        -1.229827        -0.526274
 H         1.519081        -1.938548        -0.742205
 H         1.789278        -1.901130         1.183457
 H         2.694144         1.913273        -1.900148
