19
Iteration:  4342
 C        -0.122954         0.240402        -0.313487
 C         1.378971         0.041698         0.088228
 C         2.031628         0.720429         1.234140
 C         3.342118         0.526794         0.533837
 C         3.234218        -0.861517        -0.316289
 O         4.283694        -1.617067        -0.869164
 C         1.912259        -1.480010         0.149010
 C         2.651147         0.382365        -0.849348
 O         2.761160         0.933912        -2.103921
 H        -0.622178        -0.450109         0.225256
 H        -0.561532         1.178245        -0.157442
 H        -0.256254         0.022017        -1.368619
 H         1.659324         1.732588         1.356797
 H         1.844936         0.438049         2.313930
 H         4.323816         0.828487         0.826798
 H         4.532262        -1.170297        -1.788578
 H         1.769746        -2.268370        -0.609588
 H         1.879782        -1.997190         1.108501
 H         2.324431         1.796498        -1.955285
