19
Iteration:  1078charge 0 multiplicity 1
 C        -0.162687         0.029207        -0.084548
 C         1.333044        -0.049450         0.031351
 C         2.110140         0.814084         1.146740
 C         3.313151         0.614239         0.311115
 C         3.226398        -0.919085        -0.394149
 O         4.414539        -1.552743        -0.695425
 C         1.999706        -1.475432         0.199007
 C         2.575662         0.378595        -0.943461
 O         2.675013         1.158556        -2.095976
 H        -0.783335        -0.489877         0.617799
 H        -0.338186         1.135719         0.022602
 H        -0.566188        -0.150347        -1.121637
 H         1.743124         1.898638         1.023613
 H         2.187054         0.448612         2.144500
 H         4.445866         0.902557         0.414757
 H         4.138757        -2.371777        -0.839727
 H         1.466919        -2.229096        -0.518683
 H         1.945707        -2.000646         1.203996
 H         2.326135         0.500336        -2.780765
