19
Iteration:   164
 C        -0.142665         0.183509        -0.025125
 C         1.334667         0.034456         0.064802
 C         2.048911         0.775109         1.210201
 C         3.369982         0.529137         0.460524
 C         3.225263        -0.799852        -0.271673
 O         4.305319        -1.499136        -0.942839
 C         1.843230        -1.423409         0.176898
 C         2.650569         0.364999        -0.940478
 O         2.757507         0.851527        -2.262299
 H        -0.572161         0.395523         1.077745
 H        -0.493935         1.025035        -0.655183
 H        -0.596812        -0.692882        -0.358778
 H         1.760365         1.813225         1.319713
 H         1.864925         0.180698         2.144936
 H         4.434721         0.854235         0.667423
 H         4.613522        -2.062598        -0.352401
 H         1.445624        -2.081630        -0.594407
 H         1.659828        -1.873632         1.168257
 H         3.653975         0.870117        -2.558251
