19
Iteration:  2224charge 0 multiplicity 1
 C        -0.170443         0.169308        -0.323327
 C         1.405900         0.088110         0.013412
 C         2.154742         0.597578         1.313026
 C         3.428493         0.421619         0.440213
 C         3.258585        -0.871812        -0.406500
 O         4.379396        -1.703748        -0.598293
 C         1.893052        -1.396002        -0.073902
 C         2.622022         0.465083        -0.863246
 O         2.535546         1.140519        -2.107145
 H        -0.655698        -0.668322         0.304622
 H        -0.719254         1.024749        -0.150893
 H        -0.350653        -0.149677        -1.371317
 H         1.906467         1.673328         1.545848
 H         2.019230         0.039109         2.315856
 H         4.412682         0.797314         0.594463
 H         5.219372        -1.347856        -0.461767
 H         1.427162        -1.921399        -0.932820
 H         1.701842        -2.042457         0.831343
 H         2.029621         1.948733        -1.890838
