19
Iteration:  2001charge 0 multiplicity 1
 C        -0.090421         0.120582        -0.276798
 C         1.357536        -0.017018         0.045487
 C         2.054267         0.707861         1.203196
 C         3.413474         0.548661         0.519923
 C         3.284071        -0.815648        -0.342039
 O         4.354678        -1.692071        -0.759741
 C         1.951944        -1.477206         0.033129
 C         2.598821         0.468059        -0.860363
 O         2.661517         1.118717        -2.055009
 H        -0.668027        -0.616389         0.273569
 H        -0.461214         1.183898        -0.162338
 H        -0.250824        -0.014783        -1.332701
 H         1.693803         1.809997         1.250158
 H         1.811687         0.221953         2.192438
 H         4.274071         0.981092         0.834376
 H         3.778526        -2.399141        -1.392095
 H         1.436553        -1.895215        -0.831557
 H         2.038974        -2.220105         0.856119
 H         1.999996         1.731228        -1.823922
