19
Iteration:  4609charge 0 multiplicity 1
 C        -0.081398         0.231336        -0.250800
 C         1.321521        -0.039028         0.007885
 C         1.989679         0.633807         1.269878
 C         3.335539         0.447402         0.478842
 C         3.240696        -0.848998        -0.318096
 O         4.275270        -1.622997        -0.717458
 C         1.953578        -1.466516         0.065455
 C         2.648701         0.396012        -0.912122
 O         2.705076         1.134312        -2.072564
 H        -0.737425         0.338466         0.570997
 H        -0.118688         1.355658        -0.495426
 H        -0.511304        -0.236012        -1.173711
 H         1.742325         1.711580         1.345097
 H         1.958048         0.033934         2.232976
 H         4.288779         0.956394         0.701460
 H         5.179869        -1.154943        -0.995273
 H         1.565041        -1.914730        -0.889526
 H         2.053108        -2.138728         0.960233
 H         2.725805         0.647018        -3.005834
