19
Iteration:  1277
 C        -0.117742         0.142725        -0.147475
 C         1.338664        -0.034728         0.048936
 C         2.005962         0.758263         1.215024
 C         3.292745         0.588828         0.333469
 C         3.279647        -0.925555        -0.367885
 O         4.479962        -1.459886        -0.812997
 C         1.983440        -1.513528         0.232120
 C         2.553715         0.299224        -0.975949
 O         2.604518         1.006768        -2.149894
 H        -0.701240        -0.512713         0.596132
 H        -0.405625         1.141466         0.079656
 H        -0.437243        -0.036124        -1.135914
 H         1.828116         1.882976         1.064404
 H         2.030477         0.507867         2.297830
 H         4.263071         0.881075         0.642317
 H         4.502056        -2.267720        -0.412818
 H         1.612605        -2.387902        -0.348111
 H         2.170137        -1.711032         1.300652
 H         2.486857         1.998361        -2.055767
