19
Iteration:  2410charge 0 multiplicity 1
 C        -0.131554         0.247258        -0.333433
 C         1.315936        -0.031346         0.074822
 C         2.137134         0.605624         1.302005
 C         3.359550         0.428359         0.369042
 C         3.226243        -0.919671        -0.345566
 O         4.463228        -1.499336        -0.629441
 C         1.836599        -1.488159         0.014486
 C         2.553454         0.371663        -0.877622
 O         2.623138         1.100085        -2.033089
 H        -0.920752        -0.566608         0.054085
 H        -0.462146         1.316436        -0.058223
 H        -0.161369         0.161250        -1.489734
 H         1.914899         1.696784         1.443432
 H         2.225821         0.142794         2.258230
 H         4.364379         1.005356         0.319920
 H         4.430037        -1.661178        -1.638360
 H         1.417258        -2.060442        -0.840753
 H         1.715147        -2.056052         0.943469
 H         3.261540         1.872353        -2.128625
