19
Iteration:  4232
 C        -0.074886         0.327574        -0.191121
 C         1.373318        -0.068198         0.078611
 C         2.081604         0.590521         1.225657
 C         3.329608         0.494583         0.406352
 C         3.189978        -0.848547        -0.378872
 O         4.415981        -1.525826        -0.639553
 C         1.885266        -1.522863        -0.027590
 C         2.578659         0.421046        -0.877490
 O         2.699910         1.018591        -2.145766
 H        -0.620953         0.409402         0.704854
 H        -0.192585         1.357796        -0.682735
 H        -0.551908        -0.382819        -0.926453
 H         1.682002         1.616731         1.319610
 H         1.922700         0.152687         2.280832
 H         4.333504         0.908645         0.703547
 H         4.115810        -2.518213        -0.881237
 H         1.403756        -2.044200        -0.856172
 H         1.864123        -2.121272         0.872732
 H         2.571034         2.036477        -2.101547
