19
Iteration:  3400charge 0 multiplicity 1
 C        -0.046826         0.342027        -0.157503
 C         1.310488        -0.096054         0.139764
 C         2.138106         0.656900         1.227811
 C         3.286982         0.439783         0.373826
 C         3.165577        -0.879161        -0.337777
 O         4.423139        -1.401823        -0.638828
 C         1.811460        -1.582175        -0.002624
 C         2.527935         0.426075        -0.893818
 O         2.800437         0.937793        -2.162038
 H        -0.772759        -0.359114         0.253366
 H        -0.208665         1.369069         0.233995
 H        -0.422437         0.264253        -1.290852
 H         1.779000         1.597418         1.317289
 H         2.045648         0.322516         2.206648
 H         4.349144         0.667056         0.361270
 H         4.306763        -1.790463        -1.579314
 H         1.433888        -1.980262        -0.911980
 H         1.613470        -2.189087         0.896274
 H         2.717749         1.861425        -2.166478
