19
Iteration:  4355charge 0 multiplicity 1
 C        -0.053867         0.235500        -0.276870
 C         1.314468        -0.075663         0.098679
 C         2.032648         0.758662         1.246810
 C         3.393755         0.501967         0.461306
 C         3.217807        -0.894022        -0.307619
 O         4.337032        -1.586132        -0.782955
 C         1.903934        -1.524824         0.115694
 C         2.604767         0.402504        -0.840715
 O         2.732982         1.014688        -2.105599
 H        -0.853523        -0.267718         0.191575
 H        -0.208042         1.370668        -0.235753
 H        -0.142106        -0.094885        -1.337094
 H         1.796081         1.795029         1.025336
 H         1.913915         0.165073         2.194834
 H         4.399174         0.905304         0.605955
 H         4.353777        -1.462037        -1.686329
 H         1.271885        -1.979295        -0.698319
 H         1.818654        -2.006178         1.089470
 H         2.310474         1.889224        -2.196422
