19
Iteration:  4459
 C        -0.095460         0.222769        -0.296193
 C         1.335847         0.052542         0.034311
 C         2.086477         0.695454         1.257953
 C         3.390851         0.435603         0.492866
 C         3.233911        -0.923298        -0.314978
 O         4.489053        -1.562348        -0.698891
 C         1.827074        -1.465047         0.027994
 C         2.576011         0.353929        -0.895331
 O         2.595294         1.104996        -2.049552
 H        -0.759432         0.225357         0.675593
 H        -0.232495         1.215203        -0.712953
 H        -0.620302        -0.492900        -1.001784
 H         1.749702         1.676271         1.358325
 H         1.815887         0.344275         2.149346
 H         4.380249         0.892589         0.527279
 H         4.371481        -1.639066        -1.728004
 H         1.467104        -2.201228        -0.619566
 H         1.756270        -1.903344         1.038159
 H         3.205021         0.770397        -2.685218
