19
Iteration:   355charge 0 multiplicity 1
 C        -0.126817         0.237199        -0.079709
 C         1.318613        -0.008443         0.089031
 C         2.158122         0.732837         1.273302
 C         3.337845         0.580169         0.338467
 C         3.184131        -0.821168        -0.268800
 O         4.196929        -1.430402        -0.928567
 C         1.894225        -1.480077         0.151088
 C         2.557550         0.387366        -0.883765
 O         2.882071         0.815178        -2.178095
 H        -0.540312        -0.188889         0.778314
 H        -0.425394         1.314926        -0.069869
 H        -0.603320        -0.254838        -1.009918
 H         1.743970         1.727702         1.224398
 H         2.202340         0.383770         2.391845
 H         4.340610         1.099909         0.388676
 H         4.862285        -1.740509        -0.196060
 H         1.605712        -2.097220        -0.728674
 H         1.888244        -2.067586         1.028394
 H         2.514137         0.166510        -2.849438
