19
Iteration:  2058
 C        -0.096154         0.375905        -0.251999
 C         1.267730        -0.094231         0.125999
 C         2.153509         0.546891         1.318207
 C         3.272805         0.499955         0.299327
 C         3.194570        -0.892504        -0.406645
 O         4.456034        -1.452675        -0.638351
 C         1.876760        -1.553565         0.040040
 C         2.551826         0.349606        -0.881759
 O         2.706127         1.133051        -2.062211
 H        -0.951424        -0.090852         0.426186
 H        -0.176166         1.389976        -0.060976
 H        -0.308803         0.003871        -1.283780
 H         1.764508         1.603974         1.425969
 H         2.244068        -0.003349         2.291805
 H         4.349790         0.832115         0.496437
 H         4.573095        -1.478767        -1.662042
 H         1.385888        -2.114071        -0.739202
 H         1.954633        -2.243773         0.921471
 H         2.655503         0.469193        -2.818633
