19
Iteration:   306charge 0 multiplicity 1
 C        -0.279323         0.222229        -0.090155
 C         1.292473         0.071377         0.039860
 C         2.177399         0.828207         1.165618
 C         3.433290         0.482562         0.412167
 C         3.277527        -0.855767        -0.275963
 O         4.303632        -1.513540        -0.943510
 C         1.918542        -1.411457         0.186463
 C         2.557654         0.304305        -0.902705
 O         2.705068         0.854306        -2.163191
 H        -0.839585        -0.652906         0.471479
 H        -0.569303         1.109414         0.480369
 H        -0.629332         0.350642        -1.074725
 H         1.998635         1.942320         1.348778
 H         2.011165         0.216744         2.178753
 H         4.330664         1.015459         0.578069
 H         5.031204        -1.875742        -0.237336
 H         1.397072        -2.025074        -0.568951
 H         1.740906        -1.909615         1.223484
 H         3.590533         0.709390        -2.436776
