19
Iteration:   684charge 0 multiplicity 1
 C        -0.161743         0.076405        -0.084602
 C         1.339848         0.067182         0.098612
 C         2.118204         0.819929         1.189853
 C         3.351286         0.548424         0.306443
 C         3.204097        -0.918965        -0.418009
 O         4.268261        -1.649140        -0.791263
 C         1.964999        -1.436316         0.160580
 C         2.574513         0.407936        -0.895115
 O         2.743624         1.087748        -2.160351
 H        -0.567126        -0.424553         0.777107
 H        -0.562455         1.122035        -0.225443
 H        -0.493177        -0.568758        -0.947282
 H         2.026481         1.909938         1.194459
 H         2.084394         0.400997         2.229171
 H         4.392635         0.907650         0.596786
 H         4.838375        -1.629824         0.135496
 H         1.330142        -2.188783        -0.492625
 H         2.076476        -1.728162         1.187187
 H         2.723092         0.442915        -2.838066
