19
Iteration:  3398
 C        -0.051717         0.342135        -0.161805
 C         1.322520        -0.112832         0.136830
 C         2.130358         0.652523         1.238383
 C         3.297449         0.437368         0.363086
 C         3.163143        -0.895344        -0.345239
 O         4.429763        -1.398485        -0.643696
 C         1.798978        -1.584093         0.006724
 C         2.528094         0.433741        -0.898186
 O         2.799009         0.947948        -2.153919
 H        -0.821874        -0.337674         0.225542
 H        -0.216887         1.370503         0.169833
 H        -0.397049         0.309867        -1.214613
 H         1.727504         1.729651         1.281984
 H         2.066016         0.302223         2.256306
 H         4.395435         0.681463         0.285392
 H         4.342296        -1.830173        -1.441290
 H         1.412262        -2.037169        -0.925296
 H         1.609436        -2.157639         0.944546
 H         2.700538         1.921482        -2.195989
