19
Iteration:  3181
 C        -0.207614         0.329271        -0.305936
 C         1.284292        -0.056054         0.083458
 C         2.061778         0.746883         1.211723
 C         3.347502         0.525513         0.373600
 C         3.247097        -0.885516        -0.243772
 O         4.393598        -1.484345        -0.812492
 C         1.970458        -1.605411         0.119011
 C         2.525191         0.300040        -0.864019
 O         2.789926         0.992158        -2.039302
 H        -0.805220        -0.193042         0.320667
 H        -0.349098         1.361232        -0.179779
 H        -0.392468         0.237538        -1.336968
 H         1.795797         1.805035         1.018398
 H         2.142014         0.259722         2.274252
 H         4.379543         0.863384         0.401534
 H         4.101998        -2.191395        -1.271096
 H         1.687264        -2.248429        -0.692832
 H         1.858096        -2.215107         1.048321
 H         2.642792         1.966818        -1.744456
