19
Iteration:  3082charge 0 multiplicity 1
 C        -0.143527         0.377758        -0.173368
 C         1.347702        -0.107692        -0.004206
 C         2.032054         0.597779         1.206786
 C         3.343651         0.546085         0.472610
 C         3.260887        -0.879512        -0.291319
 O         4.381837        -1.510736        -0.729246
 C         1.892533        -1.530724         0.037415
 C         2.644189         0.382848        -0.864817
 O         2.695215         0.980087        -2.157790
 H        -0.712965         0.347245         0.787038
 H        -0.164053         1.412713        -0.514178
 H        -0.633115        -0.271499        -0.937544
 H         1.593609         1.605865         1.132572
 H         1.937997         0.128583         2.228666
 H         4.289625         0.906346         0.808880
 H         4.265679        -1.891830        -1.533065
 H         1.633187        -2.269940        -0.722313
 H         1.902491        -2.032433         1.034354
 H         2.865366         1.942108        -1.994625
