19
Iteration:  3346charge 0 multiplicity 1
 C        -0.030786         0.196677        -0.331579
 C         1.372040        -0.051337         0.077491
 C         2.102709         0.652631         1.223168
 C         3.410303         0.540826         0.507715
 C         3.267247        -0.862026        -0.325998
 O         4.338231        -1.707033        -0.698092
 C         1.907856        -1.471699         0.063183
 C         2.630748         0.459101        -0.850802
 O         2.543024         1.126949        -2.117417
 H        -0.708063        -0.110171         0.461680
 H        -0.259121         1.277727        -0.522391
 H        -0.421480        -0.208024        -1.411964
 H         1.824974         1.697400         1.146704
 H         1.841113         0.225911         2.246094
 H         4.316456         1.169515         0.579601
 H         3.950786        -2.231550        -1.497873
 H         1.484290        -2.094826        -0.677649
 H         1.836546        -1.978513         1.033181
 H         2.852478         1.989328        -1.965571
