19
Iteration:   778
 C        -0.075118         0.312281        -0.286928
 C         1.335799        -0.036893         0.071416
 C         2.187016         0.662018         1.312334
 C         3.445284         0.656362         0.368516
 C         3.248929        -0.852527        -0.259958
 O         4.378361        -1.397327        -0.893510
 C         1.835052        -1.462599         0.152295
 C         2.556591         0.326935        -0.855016
 O         2.514704         0.817857        -2.087718
 H        -0.865899        -0.043788         0.423209
 H        -0.122725         1.370505        -0.564660
 H        -0.509227        -0.309976        -1.148115
 H         1.727805         1.707358         1.535542
 H         2.244615         0.139904         2.229630
 H         4.538538         1.041473         0.569359
 H         4.852633        -2.012302        -0.449178
 H         1.572474        -2.095055        -0.652365
 H         1.749198        -1.917577         1.233462
 H         2.851263         0.161524        -2.816644
