19
Iteration:    44
 C        -0.045688         0.269526        -0.375226
 C         1.384303         0.007648         0.041271
 C         2.188822         0.729480         1.204884
 C         3.462090         0.595210         0.252284
 C         3.266139        -0.858251        -0.254306
 O         4.371256        -1.627291        -0.653900
 C         1.956314        -1.445196         0.150495
 C         2.628378         0.352887        -0.916365
 O         2.274669         0.912571        -2.077382
 H        -0.690880        -0.527268         0.075607
 H        -0.399106         1.205161         0.059166
 H        -0.259230         0.288157        -1.399911
 H         2.022264         1.745413         1.233935
 H         2.134365         0.257013         2.147051
 H         4.502729         0.931542         0.383676
 H         4.749698        -2.064342         0.051305
 H         1.478255        -2.069577        -0.593101
 H         1.978717        -1.942545         1.131510
 H         2.788905         1.820492        -1.934544
