19
Iteration:  2375charge 0 multiplicity 1
 C        -0.070376         0.307967        -0.191422
 C         1.367297        -0.082782        -0.080492
 C         2.003118         0.590322         1.228666
 C         3.333781         0.352649         0.483675
 C         3.203316        -0.882462        -0.373688
 O         4.451243        -1.458698        -0.697222
 C         1.885802        -1.542831         0.001416
 C         2.629739         0.457654        -0.872660
 O         2.694860         1.081888        -2.068539
 H        -0.707491        -0.138143         0.645797
 H        -0.191724         1.513777        -0.188777
 H        -0.518433         0.002191        -1.171256
 H         1.807296         1.695715         1.179543
 H         1.748933         0.261976         2.226087
 H         4.228205         0.851249         0.681854
 H         4.395612        -2.268801        -1.139655
 H         1.518526        -2.249556        -0.697458
 H         1.830726        -1.870756         1.038909
 H         2.065794         1.854242        -1.974782
