19
Iteration:  1583
 C        -0.159591         0.154209        -0.146449
 C         1.313240        -0.047811         0.080383
 C         2.053207         0.682804         1.244296
 C         3.363644         0.452548         0.376593
 C         3.175928        -0.856081        -0.351449
 O         4.429761        -1.377340        -0.749018
 C         1.931075        -1.474822         0.055397
 C         2.582325         0.370469        -0.921136
 O         2.743533         0.983183        -2.128922
 H        -0.674114        -0.390046         0.524315
 H        -0.472571         1.202235        -0.013653
 H        -0.430367        -0.082701        -1.166260
 H         1.850447         1.818749         1.244547
 H         1.847133         0.336658         2.221337
 H         4.339672         0.754906         0.510757
 H         4.253040        -2.395357        -0.892330
 H         1.446066        -2.075382        -0.739315
 H         1.977981        -2.110887         0.997097
 H         2.714946         1.906277        -1.999322
