19
Iteration:  3156charge 0 multiplicity 1
 C        -0.039406         0.288057        -0.310110
 C         1.349848        -0.066365         0.061027
 C         1.993857         0.687405         1.184566
 C         3.310917         0.481424         0.414671
 C         3.278797        -0.891224        -0.374573
 O         4.408912        -1.620795        -0.723094
 C         1.937595        -1.474717         0.159785
 C         2.561385         0.302815        -0.910650
 O         2.622141         1.117282        -2.023690
 H        -0.725114         0.060910         0.465007
 H        -0.071773         1.365549        -0.463081
 H        -0.232016        -0.085403        -1.379625
 H         1.814779         1.696569         0.998101
 H         1.988100         0.203907         2.206738
 H         4.210458         1.075974         0.499349
 H         4.209545        -2.118141        -1.533269
 H         1.492614        -2.337311        -0.377062
 H         2.019606        -1.743729         1.186456
 H         2.817067         2.032908        -1.651796
