19
Iteration:   107charge 0 multiplicity 1
 C        -0.147321         0.248969        -0.151324
 C         1.333973         0.026543         0.053769
 C         2.132479         0.721670         1.165021
 C         3.343990         0.541885         0.369671
 C         3.260154        -0.877152        -0.242388
 O         4.310407        -1.500873        -0.887321
 C         1.868401        -1.428961         0.244768
 C         2.603359         0.300780        -0.935070
 O         2.764860         0.899780        -2.168077
 H        -0.714797        -0.545246         0.546846
 H        -0.420880         1.258774         0.236017
 H        -0.492971         0.162690        -1.176631
 H         2.006522         1.840865         1.245573
 H         1.997520         0.200438         2.172163
 H         4.238195         1.119451         0.373104
 H         5.014333        -1.562634        -0.176069
 H         1.438322        -2.169153        -0.377821
 H         1.837877        -1.720627         1.339956
 H         1.893000         0.656813        -2.666858
