19
Iteration:  3602charge 0 multiplicity 1
 C        -0.109851         0.340342        -0.225124
 C         1.393340        -0.012488         0.021057
 C         2.027779         0.694214         1.261486
 C         3.363363         0.440607         0.445088
 C         3.208969        -0.922222        -0.370692
 O         4.415794        -1.555502        -0.673159
 C         1.929729        -1.549427         0.048756
 C         2.554939         0.370059        -0.899586
 O         2.700775         1.047046        -2.108634
 H        -0.656106        -0.295793         0.526688
 H        -0.374977         1.445251         0.011650
 H        -0.417225         0.191218        -1.382445
 H         1.871979         1.707616         1.234560
 H         1.842789         0.049785         2.119786
 H         4.297175         0.940095         0.453520
 H         4.207411        -2.012442        -1.578126
 H         1.312167        -2.190014        -0.648856
 H         1.968106        -1.998586         1.030154
 H         2.409129         1.991105        -1.930888
