19
Iteration:  2781charge 0 multiplicity 1
 C        -0.020418         0.103129        -0.348419
 C         1.343661        -0.009113         0.104771
 C         2.106836         0.665923         1.422889
 C         3.383516         0.522879         0.491122
 C         3.183456        -0.764946        -0.326026
 O         4.280726        -1.563110        -0.785248
 C         1.879702        -1.400572         0.070449
 C         2.613894         0.447073        -0.880140
 O         2.702549         0.943396        -2.162553
 H        -0.734050        -0.459673         0.269323
 H        -0.322771         1.254758        -0.406991
 H        -0.076741        -0.169161        -1.512507
 H         1.771712         1.581853         1.749863
 H         2.071839        -0.110950         2.114379
 H         4.438417         0.873622         0.770903
 H         4.007312        -1.796060        -1.771839
 H         1.341677        -1.962688        -0.725234
 H         1.831578        -1.997165         1.019528
 H         2.789046         1.957321        -2.058941
