19
Iteration:  2366
 C        -0.110530         0.314843        -0.208955
 C         1.297810        -0.051541        -0.010158
 C         2.014779         0.546296         1.210961
 C         3.322453         0.468984         0.470467
 C         3.307475        -0.866297        -0.321115
 O         4.424222        -1.505799        -0.727349
 C         1.925217        -1.523676        -0.014028
 C         2.594957         0.402482        -0.832981
 O         2.747117         1.084660        -2.073512
 H        -0.729922         0.057012         0.752411
 H        -0.156481         1.446252        -0.316072
 H        -0.594234        -0.114446        -1.144430
 H         1.715308         1.608365         1.285614
 H         1.711168         0.165349         2.155694
 H         4.319329         0.900284         0.524285
 H         4.124745        -2.231857        -1.232891
 H         1.681160        -2.133968        -0.907320
 H         1.766592        -2.098766         0.932254
 H         1.945355         1.678033        -2.068207
