19
Iteration:  2107charge 0 multiplicity 1
 C        -0.158043         0.208062        -0.233274
 C         1.348311         0.042860        -0.006366
 C         2.041099         0.675775         1.287949
 C         3.408708         0.481560         0.656176
 C         3.264230        -0.836874        -0.297789
 O         4.377535        -1.474577        -0.969570
 C         1.894026        -1.467467        -0.076568
 C         2.673618         0.425138        -0.738233
 O         2.617360         0.942076        -2.078918
 H        -0.671477         0.266786         0.698996
 H        -0.300662         1.305899        -0.610101
 H        -0.622966        -0.561901        -0.849117
 H         1.773348         1.706662         1.454811
 H         1.863178         0.134054         2.231170
 H         4.242067         1.029908         0.861436
 H         4.326621        -2.376177        -0.791372
 H         1.489973        -2.005665        -0.980764
 H         1.539371        -2.041800         0.759594
 H         3.516924         0.750600        -2.410098
