19
Iteration:   127charge 0 multiplicity 1
 C        -0.211268         0.213919        -0.043962
 C         1.294833        -0.006770         0.125693
 C         2.100275         0.830218         1.210173
 C         3.383279         0.603071         0.324328
 C         3.263785        -0.858461        -0.233999
 O         4.307860        -1.506766        -0.932996
 C         1.863662        -1.463406         0.158797
 C         2.555115         0.337057        -0.938454
 O         2.842600         0.883615        -2.152111
 H        -0.797633        -0.266792         0.802936
 H        -0.489289         1.281235        -0.152656
 H        -0.528459        -0.324846        -1.030058
 H         1.663932         1.927009         1.338246
 H         2.184678         0.348276         2.273164
 H         4.339851         1.021398         0.428481
 H         4.818789        -1.958939        -0.349438
 H         1.545548        -1.945097        -0.762237
 H         1.696765        -2.096308         1.080732
 H         2.901406         0.153072        -2.810644
