19
Iteration:   658charge 0 multiplicity 1
 C        -0.083132         0.202332        -0.201865
 C         1.348518        -0.068639         0.100838
 C         2.114713         0.803080         1.138544
 C         3.385030         0.525825         0.304779
 C         3.268329        -0.951099        -0.308736
 O         4.345964        -1.606318        -0.792092
 C         1.937464        -1.443523         0.213049
 C         2.569207         0.311105        -0.908167
 O         2.598481         1.132797        -2.096556
 H        -0.680195         0.067171         0.701521
 H        -0.138078         1.237644        -0.533206
 H        -0.574941        -0.470795        -0.988212
 H         1.872616         1.959096         0.998262
 H         2.238074         0.506343         2.203553
 H         4.308741         0.994193         0.476898
 H         4.776777        -1.977845         0.046790
 H         1.476542        -2.095650        -0.526625
 H         1.886903        -1.948499         1.218882
 H         1.978317         0.787573        -2.750350
