19
Iteration:  3567charge 0 multiplicity 1
 C        -0.146025         0.295355        -0.232395
 C         1.369069         0.007933         0.033663
 C         2.250136         0.602634         1.204451
 C         3.441106         0.463390         0.324122
 C         3.223398        -0.903373        -0.350208
 O         4.425775        -1.623868        -0.447515
 C         1.826393        -1.519724        -0.069975
 C         2.604088         0.441185        -0.935033
 O         2.533247         1.132855        -2.102978
 H        -0.814674        -0.310109         0.365626
 H        -0.499902         1.335066        -0.043788
 H        -0.548215        -0.044286        -1.289978
 H         1.858343         1.549079         1.635488
 H         2.022514         0.030897         2.140962
 H         4.455625         0.921585         0.375952
 H         4.437293        -2.214860        -1.194450
 H         1.367779        -2.010593        -0.958310
 H         1.715198        -2.125393         0.858843
 H         2.585310         2.106392        -2.075222
