19
Iteration:  4514charge 0 multiplicity 1
 C        -0.132618         0.217551        -0.367347
 C         1.324899         0.024376         0.132970
 C         2.076653         0.661828         1.276665
 C         3.281460         0.589448         0.411638
 C         3.252517        -0.845574        -0.245150
 O         4.354994        -1.527163        -0.901810
 C         1.947186        -1.454659         0.119623
 C         2.569384         0.317937        -0.806515
 O         2.802555         1.019265        -2.010008
 H        -0.910476        -0.430502         0.137081
 H        -0.529375         1.141032        -0.085865
 H        -0.128874         0.196289        -1.480471
 H         1.648199         1.609828         1.264988
 H         2.013377         0.205159         2.238089
 H         4.240162         1.145908         0.483956
 H         3.960038        -2.399615        -1.019526
 H         1.648962        -1.900552        -0.764780
 H         1.801843        -2.064950         1.024853
 H         2.647465         0.531475        -2.768929
