19
Iteration:  1317charge 0 multiplicity 1
 C        -0.060675         0.155784        -0.213118
 C         1.338947        -0.024379         0.143141
 C         2.110300         0.717434         1.335795
 C         3.277648         0.602696         0.480850
 C         3.253199        -0.779801        -0.258107
 O         4.313371        -1.406639        -0.954291
 C         1.958660        -1.444969         0.044505
 C         2.556509         0.449292        -0.829997
 O         2.683304         0.669062        -2.199806
 H        -0.679033        -0.273784         0.558948
 H        -0.461041         1.233343        -0.350850
 H        -0.260935        -0.586999        -1.091800
 H         1.717118         1.765617         1.400252
 H         2.276403         0.262289         2.296693
 H         4.192575         1.026031         0.673138
 H         5.216830        -1.185455        -0.543827
 H         1.564140        -1.946187        -0.854313
 H         1.770764        -2.096434         0.887941
 H         2.236507         1.513484        -2.260023
