19
Iteration:  2133
 C        -0.099935         0.190479        -0.273367
 C         1.336881        -0.012487         0.121456
 C         2.108470         0.661305         1.263715
 C         3.305608         0.445592         0.460834
 C         3.154685        -0.906781        -0.308949
 O         4.279728        -1.436514        -0.947340
 C         1.894721        -1.522133         0.018422
 C         2.616499         0.406061        -0.800543
 O         2.738880         1.047367        -2.033752
 H        -0.822853         0.234637         0.524770
 H        -0.076663         1.178250        -0.702773
 H        -0.456247        -0.500429        -1.040851
 H         1.837605         1.754004         1.437927
 H         2.127958         0.274431         2.277111
 H         4.406505         0.835735         0.641106
 H         5.005178        -1.434596        -0.411890
 H         1.268731        -1.921786        -0.763007
 H         1.623526        -2.176942         0.897922
 H         3.713475         0.871350        -2.250895
