19
Iteration:  4300charge 0 multiplicity 1
 C        -0.140665         0.217729        -0.268602
 C         1.277600        -0.001654         0.125196
 C         2.119452         0.665469         1.305447
 C         3.338784         0.561711         0.449609
 C         3.161493        -0.819939        -0.246761
 O         4.227165        -1.491566        -0.865331
 C         1.918440        -1.488743         0.078568
 C         2.579148         0.371180        -0.834356
 O         2.889606         0.837794        -2.185453
 H        -0.623185        -0.587137         0.274072
 H        -0.698712         1.217826         0.026759
 H        -0.114831         0.074471        -1.398780
 H         1.921965         1.738854         1.474652
 H         2.189417         0.347910         2.395224
 H         4.296829         0.830065         0.808522
 H         4.647544        -0.900531        -1.402058
 H         1.299265        -1.928873        -0.725299
 H         1.842785        -2.138124         0.935088
 H         3.054806         1.756537        -2.192220
