19
Iteration:  2284
 C        -0.150603         0.279374        -0.279888
 C         1.294149        -0.112370         0.082477
 C         1.967466         0.727452         1.210306
 C         3.351208         0.445137         0.476102
 C         3.299321        -0.894116        -0.356208
 O         4.416411        -1.500563        -0.923656
 C         1.889084        -1.541911         0.095639
 C         2.570809         0.345804        -0.795106
 O         2.705079         1.003782        -1.982342
 H        -0.828592         0.203342         0.551030
 H        -0.133314         1.484303        -0.684582
 H        -0.523812        -0.367704        -1.099561
 H         1.608422         1.744864         0.988029
 H         1.815562         0.290154         2.242029
 H         4.323262         1.074549         0.612606
 H         5.196583        -0.979845        -1.047396
 H         1.484032        -2.024401        -0.812084
 H         1.769326        -2.162015         0.993822
 H         3.420557         1.710851        -1.751567
