19
Iteration:  4392
 C        -0.160105         0.330611        -0.257817
 C         1.367483         0.001212         0.023122
 C         2.087870         0.588604         1.201949
 C         3.406297         0.451019         0.386965
 C         3.239592        -0.906267        -0.327919
 O         4.490550        -1.502396        -0.616625
 C         1.854936        -1.504304         0.045421
 C         2.587413         0.372588        -0.887081
 O         2.563064         1.061872        -2.138790
 H        -0.908972         0.323346         0.702773
 H        -0.252870         1.379634        -0.737192
 H        -0.519014        -0.320284        -1.110842
 H         1.959753         1.520787         1.684099
 H         2.044730         0.027319         2.078836
 H         4.456332         0.749801         0.488741
 H         4.336531        -2.372110        -0.992012
 H         1.329746        -2.095541        -0.677952
 H         1.827303        -2.083084         1.000958
 H         3.004885         1.949180        -1.872029
