19
Iteration:  3111
 C        -0.087808         0.193763        -0.315310
 C         1.374372         0.019251         0.109751
 C         2.180108         0.678355         1.337400
 C         3.361340         0.502097         0.352698
 C         3.250913        -0.876313        -0.358643
 O         4.378488        -1.634291        -0.599995
 C         1.861161        -1.358915        -0.067649
 C         2.520427         0.404585        -0.856536
 O         2.561735         1.009843        -2.058322
 H        -0.747356         0.150398         0.491029
 H        -0.286558         1.003090        -1.030200
 H        -0.290825        -0.621596        -1.062620
 H         1.856116         1.693348         1.323733
 H         2.172752         0.073082         2.365360
 H         4.467461         0.709215         0.478275
 H         4.636317        -1.718193        -1.525153
 H         1.480272        -1.808064        -1.025514
 H         1.739674        -2.070464         0.725164
 H         3.132623         1.854663        -1.919389
