19
Iteration:  4262charge 0 multiplicity 1
 C        -0.197696         0.337588        -0.163863
 C         1.361858         0.012173        -0.007044
 C         2.054826         0.633157         1.208544
 C         3.297183         0.441462         0.455797
 C         3.282708        -0.877039        -0.279960
 O         4.447165        -1.482355        -0.759894
 C         1.866636        -1.457768         0.038035
 C         2.598485         0.368286        -0.863292
 O         2.789173         0.902419        -2.119863
 H        -0.718904         0.013785         0.770397
 H        -0.409667         1.328727        -0.069807
 H        -0.796550        -0.092839        -0.907385
 H         1.810063         1.686974         1.030885
 H         1.804242        -0.035211         2.022413
 H         4.214095         0.928250         0.864930
 H         4.198454        -1.797328        -1.679370
 H         1.370501        -2.040740        -0.739850
 H         1.733415        -2.011690         1.005518
 H         2.596155         1.829737        -2.184445
