19
Iteration:  4818
 C        -0.079122         0.282613        -0.431457
 C         1.311954        -0.047341         0.124330
 C         2.045589         0.660589         1.289089
 C         3.337888         0.493794         0.561692
 C         3.217158        -0.889069        -0.335263
 O         4.300023        -1.560100        -0.892824
 C         1.922330        -1.465480         0.158270
 C         2.603488         0.448871        -0.775997
 O         2.800813         0.939699        -2.063040
 H        -0.841492         0.148597         0.322057
 H        -0.121319         1.412928        -0.771950
 H        -0.123746        -0.436768        -1.352841
 H         1.745241         1.711794         1.398440
 H         1.968423         0.224720         2.282897
 H         4.355740         0.725923         0.860166
 H         4.355740        -1.390339        -1.878388
 H         1.513018        -1.862325        -0.735657
 H         1.761388        -2.039695         1.051947
 H         2.204250         1.645931        -2.267712
