19
Iteration:  2806
 C        -0.172213         0.240289        -0.304449
 C         1.270030        -0.074230         0.055146
 C         2.139700         0.698071         1.224545
 C         3.336781         0.565132         0.408943
 C         3.264527        -0.855438        -0.231075
 O         4.344766        -1.568577        -0.837515
 C         1.920380        -1.494200         0.070808
 C         2.576533         0.382720        -0.814191
 O         2.742886         0.939614        -1.984455
 H        -0.868430        -0.443926         0.197867
 H        -0.442212         1.245729        -0.056811
 H        -0.320953         0.253694        -1.423078
 H         1.837932         1.780846         1.156070
 H         2.163889         0.233902         2.220503
 H         4.220190         1.182127         0.468369
 H         4.286391        -1.381569        -1.887062
 H         1.451104        -2.054001        -0.799378
 H         1.825132        -2.090617         0.978336
 H         3.154037         1.808269        -1.915130
