19
Iteration:   424charge 0 multiplicity 1
 C        -0.045859         0.344463        -0.312467
 C         1.361598        -0.112657         0.179192
 C         2.198610         0.730723         1.157110
 C         3.382997         0.548462         0.237397
 C         3.288184        -0.936500        -0.343295
 O         4.363330        -1.641273        -0.723525
 C         1.958856        -1.539901         0.216761
 C         2.549130         0.268978        -0.959653
 O         2.403260         1.175699        -2.011497
 H        -0.691806         0.658428         0.570974
 H        -0.035118         1.185618        -1.012485
 H        -0.571287        -0.405041        -0.778215
 H         2.005148         1.873829         0.967380
 H         2.197885         0.559432         2.269260
 H         4.332548         0.939328         0.439011
 H         4.963093        -1.761393         0.053960
 H         1.523450        -2.053802        -0.530262
 H         1.775050        -1.992914         1.211192
 H         2.641154         0.829406        -2.834797
