19
Iteration:  3537charge 0 multiplicity 1
 C        -0.070197         0.289662        -0.241633
 C         1.356377        -0.041406         0.120882
 C         2.129182         0.629036         1.246858
 C         3.373486         0.511163         0.379574
 C         3.266904        -0.879853        -0.370058
 O         4.386441        -1.620129        -0.593733
 C         1.870929        -1.488179        -0.005927
 C         2.593904         0.406587        -0.928331
 O         2.575981         1.101447        -2.107390
 H        -0.775401        -0.236564         0.536689
 H        -0.102954         1.419518        -0.363808
 H        -0.436001        -0.185996        -1.259489
 H         1.707349         1.575026         1.263482
 H         1.942762         0.114614         2.205023
 H         4.354168         0.961868         0.503325
 H         4.114702        -2.416311        -1.244701
 H         1.364652        -1.890613        -0.927540
 H         1.835467        -2.105803         0.869885
 H         3.087520         1.969219        -2.078570
