19
Iteration:  2490charge 0 multiplicity 1
 C        -0.170684         0.245875        -0.354864
 C         1.342016        -0.081557         0.063711
 C         2.156931         0.690193         1.262102
 C         3.363845         0.500770         0.365499
 C         3.190847        -0.988953        -0.322921
 O         4.413662        -1.346569        -0.742235
 C         1.821226        -1.542674         0.076411
 C         2.560387         0.288638        -0.822501
 O         2.711662         1.038872        -1.990690
 H        -0.972679         0.047983         0.560956
 H        -0.219303         1.280150        -0.643794
 H        -0.538405        -0.354811        -1.271511
 H         1.991322         1.750442         1.322679
 H         2.158259         0.285675         2.296356
 H         4.263320         1.014833         0.546270
 H         4.191111        -1.686172        -1.778205
 H         1.348008        -2.028681        -0.849760
 H         1.770313        -2.237545         0.952925
 H         3.565256         1.534268        -1.914146
