19
Iteration:  3778charge 0 multiplicity 1
 C        -0.036971         0.249924        -0.345390
 C         1.413828        -0.070788         0.059822
 C         2.137745         0.702118         1.237723
 C         3.397699         0.511278         0.368600
 C         3.230295        -0.901261        -0.295738
 O         4.344594        -1.692652        -0.577675
 C         1.917257        -1.543822         0.080349
 C         2.560545         0.349918        -0.918245
 O         2.475836         1.251975        -2.111628
 H        -0.646112        -0.261338         0.329507
 H        -0.241693         1.356239        -0.350257
 H        -0.244873        -0.207306        -1.384900
 H         1.829677         1.842112         1.443210
 H         2.108697         0.345397         2.336470
 H         4.493480         0.766230         0.424258
 H         4.309425        -2.067850        -1.396045
 H         1.614717        -2.018435        -0.886872
 H         1.719943        -2.198707         0.924057
 H         3.213517         1.955265        -1.953048
