19
Iteration:   195
 C        -0.132833         0.312050        -0.214487
 C         1.335147        -0.035979         0.094574
 C         2.163040         0.750890         1.198146
 C         3.438971         0.526966         0.362548
 C         3.253571        -0.830663        -0.338140
 O         4.348644        -1.553545        -0.859740
 C         1.881564        -1.492930         0.153551
 C         2.554266         0.303928        -0.866942
 O         2.549334         0.907412        -2.082597
 H        -0.675489         0.691852         0.791594
 H        -0.236909         1.104641        -1.002355
 H        -0.696085        -0.532616        -0.489922
 H         1.812661         1.880561         1.265835
 H         2.024711         0.348087         2.335245
 H         4.440082         0.963375         0.060414
 H         4.928031        -1.597497         0.023216
 H         1.573941        -2.072717        -0.668840
 H         1.776069        -1.939648         1.200112
 H         3.488253         1.104005        -2.421006
