19
Iteration:  3928charge 0 multiplicity 1
 C        -0.169177         0.311757        -0.208039
 C         1.285095        -0.020672         0.164002
 C         2.099913         0.670060         1.271264
 C         3.303468         0.492079         0.358220
 C         3.179394        -0.945624        -0.317949
 O         4.459624        -1.469218        -0.699684
 C         1.823747        -1.490732         0.056776
 C         2.620615         0.376032        -0.907870
 O         2.795290         0.915668        -2.166008
 H        -0.815093        -0.331250         0.480835
 H        -0.441961         1.294078         0.029860
 H        -0.199610         0.178345        -1.280300
 H         1.780422         1.739503         1.407185
 H         1.895578         0.038430         2.155747
 H         4.245973         1.038204         0.337939
 H         4.402642        -1.558945        -1.718522
 H         1.371986        -2.021236        -0.822355
 H         1.673542        -2.096014         0.963735
 H         3.034640         1.883789        -2.000007
