19
Iteration:   284charge 0 multiplicity 1
 C         0.002731         0.239370        -0.178664
 C         1.424526        -0.013882         0.113961
 C         2.143815         0.779668         1.203039
 C         3.372080         0.589993         0.391870
 C         3.179683        -0.875060        -0.337439
 O         4.275935        -1.571310        -0.815226
 C         1.870616        -1.473880         0.147581
 C         2.610401         0.384257        -0.882062
 O         2.530592         0.915825        -2.182655
 H        -0.537421        -0.694379         0.322513
 H        -0.426395         1.133129         0.288209
 H        -0.167045         0.246738        -1.214241
 H         1.792783         1.879300         1.174429
 H         2.293389         0.477340         2.363236
 H         4.416525         0.851806         0.382808
 H         4.719206        -1.931249        -0.157595
 H         1.221710        -1.998254        -0.569612
 H         1.813443        -1.960622         1.191142
 H         3.448440         0.948293        -2.627526
