19
Iteration:  3479charge 0 multiplicity 1
 C        -0.145928         0.235566        -0.306475
 C         1.297428        -0.044080         0.136694
 C         2.165803         0.765761         1.292236
 C         3.316748         0.534375         0.423669
 C         3.186935        -0.900738        -0.323704
 O         4.315757        -1.475469        -0.920781
 C         1.835386        -1.571639         0.137211
 C         2.556076         0.363975        -0.793010
 O         2.891311         0.913953        -2.055563
 H        -0.838234         0.233042         0.542501
 H        -0.252902         1.307606        -0.654794
 H        -0.348583        -0.481898        -1.274725
 H         1.773046         1.758241         1.257175
 H         2.070885         0.320968         2.310260
 H         4.344916         0.809628         0.663376
 H         4.309956        -1.075803        -1.732715
 H         1.285989        -2.181522        -0.578188
 H         1.718042        -2.154173         1.071678
 H         2.817586         1.870624        -2.084016
