19
Iteration:  3781
 C        -0.054428         0.230348        -0.370462
 C         1.433598        -0.064227         0.061556
 C         2.138093         0.708175         1.234670
 C         3.400705         0.501175         0.399384
 C         3.244611        -0.921220        -0.292342
 O         4.334454        -1.692689        -0.585184
 C         1.936648        -1.518070         0.081204
 C         2.550177         0.342802        -0.932104
 O         2.478484         1.248709        -2.094443
 H        -0.703953        -0.051254         0.504020
 H        -0.307267         1.343505        -0.341981
 H        -0.192022        -0.051189        -1.419683
 H         1.783265         1.779046         1.348034
 H         2.024103         0.392069         2.316559
 H         4.430478         0.799623         0.443866
 H         4.300177        -2.067100        -1.581057
 H         1.629776        -2.104841        -0.780925
 H         1.814187        -2.203866         0.919758
 H         3.151327         1.947114        -2.013652
