19
Iteration:  4367
 C        -0.076659         0.234486        -0.337162
 C         1.377434        -0.044109         0.099711
 C         2.116734         0.672967         1.226990
 C         3.320531         0.464807         0.399279
 C         3.208503        -0.889795        -0.333415
 O         4.384545        -1.537792        -0.691044
 C         1.858703        -1.480325         0.079965
 C         2.549033         0.378306        -0.853273
 O         2.707790         1.011613        -2.082648
 H        -0.750029        -0.021975         0.503227
 H        -0.128720         1.423003        -0.323112
 H        -0.418490        -0.040628        -1.360865
 H         1.898072         1.738199         1.403673
 H         2.127038         0.582153         2.345643
 H         4.325467         0.914985         0.442279
 H         4.278504        -1.824046        -1.697708
 H         1.447393        -2.157806        -0.727017
 H         1.888197        -2.155465         0.945951
 H         2.344402         1.946030        -1.837859
