19
Iteration:  1723
 C        -0.082208         0.382267        -0.154492
 C         1.374163        -0.121255         0.017553
 C         1.902080         0.637516         1.252953
 C         3.295361         0.495212         0.481760
 C         3.270415        -0.870910        -0.314485
 O         4.467110        -1.318227        -0.910363
 C         1.936627        -1.591110         0.049093
 C         2.571264         0.333526        -0.850918
 O         2.723498         0.872141        -2.113754
 H        -0.501042         0.224285         0.802529
 H        -0.053056         1.571282        -0.306961
 H        -0.751162         0.241597        -1.106249
 H         1.508295         1.660917         1.403984
 H         1.714532         0.162116         2.241189
 H         4.178390         0.943911         0.604809
 H         4.582610        -2.234649        -0.499089
 H         1.345395        -2.223038        -0.659048
 H         1.791930        -2.203737         0.897659
 H         2.667682         1.837549        -2.085222
