19
Iteration:  4272
 C        -0.155043         0.317389        -0.145188
 C         1.274858        -0.003282         0.049387
 C         2.024343         0.615186         1.204491
 C         3.346765         0.500040         0.446561
 C         3.246005        -0.901339        -0.329431
 O         4.434619        -1.492491        -0.783318
 C         1.827942        -1.462616         0.044500
 C         2.564555         0.433019        -0.853476
 O         2.846195         0.850449        -2.109857
 H        -0.675031        -0.333629         0.638130
 H        -0.394432         1.360154        -0.129769
 H        -0.451859        -0.072340        -1.111215
 H         1.748361         1.710422         1.355168
 H         1.891095         0.368126         2.247349
 H         4.361400         0.922219         0.597415
 H         4.477859        -1.414723        -1.725928
 H         1.328089        -2.026045        -0.757660
 H         1.726384        -1.971803         1.043823
 H         2.687565         1.770076        -2.172177
