19
Iteration:   956charge 0 multiplicity 1
 C        -0.039474         0.336183        -0.185074
 C         1.384360         0.007184         0.098408
 C         2.075336         0.673485         1.293472
 C         3.325374         0.519125         0.376476
 C         3.230165        -0.854447        -0.224518
 O         4.365660        -1.439293        -0.978550
 C         1.926676        -1.496090         0.217191
 C         2.534575         0.297777        -0.888754
 O         2.665797         0.807210        -2.148480
 H        -0.754943         0.129052         0.566768
 H        -0.204667         1.473611        -0.443456
 H        -0.246436        -0.243472        -1.217683
 H         1.676638         1.765966         1.201173
 H         1.933816         0.286908         2.236017
 H         4.260354         0.951611         0.564644
 H         5.271881        -1.000301        -0.505891
 H         1.602868        -2.160883        -0.668733
 H         1.690062        -1.978031         1.229374
 H         1.762737         1.110790        -2.486637
