19
Iteration:  4211
 C        -0.116747         0.285744        -0.340643
 C         1.341337        -0.033153         0.076009
 C         2.189203         0.642658         1.333675
 C         3.353632         0.515313         0.353095
 C         3.256246        -0.877170        -0.373269
 O         4.409548        -1.590903        -0.595446
 C         1.875412        -1.464537        -0.013904
 C         2.547115         0.338239        -0.900010
 O         2.610361         1.098045        -2.079526
 H        -0.786058         0.410522         0.491817
 H        -0.321294         1.290476        -0.948343
 H        -0.524784        -0.603090        -0.951552
 H         1.923533         1.628399         1.563427
 H         2.127883        -0.085868         2.182844
 H         4.423828         0.861032         0.317868
 H         4.341317        -2.410329        -0.967939
 H         1.391381        -2.029277        -0.817093
 H         1.787387        -2.053725         0.899057
 H         2.702976         2.024275        -1.889534
