19
Iteration:  2735charge 0 multiplicity 1
 C        -0.117342         0.322888        -0.259199
 C         1.317025        -0.105167         0.057664
 C         2.086250         0.694298         1.218154
 C         3.301598         0.471652         0.406217
 C         3.262495        -0.954476        -0.306192
 O         4.470340        -1.456418        -0.721651
 C         1.878152        -1.509956         0.030028
 C         2.583243         0.252154        -0.842113
 O         2.685954         1.043856        -2.038440
 H        -0.754395         0.265501         0.679569
 H         0.044756         1.477079        -0.550555
 H        -0.588074        -0.020491        -1.239216
 H         1.840690         1.681833         1.012755
 H         2.109939         0.394020         2.235072
 H         4.211469         0.984963         0.559304
 H         4.299231        -1.894483        -1.697784
 H         1.515938        -2.025569        -0.843470
 H         1.620514        -2.176288         0.905585
 H         2.207217         1.879884        -1.850630
