19
Iteration:  2493
 C        -0.168082         0.235968        -0.346070
 C         1.309362        -0.085122         0.062940
 C         2.169160         0.685724         1.275264
 C         3.354597         0.533406         0.354889
 C         3.176888        -0.957514        -0.329343
 O         4.426753        -1.362570        -0.746150
 C         1.820668        -1.578368         0.069366
 C         2.538447         0.291986        -0.823968
 O         2.730452         1.041615        -1.993127
 H        -0.856283         0.171930         0.492641
 H        -0.168431         1.316762        -0.639375
 H        -0.503084        -0.310333        -1.178736
 H         1.948545         1.782455         1.241818
 H         2.243607         0.176572         2.336170
 H         4.291518         1.005074         0.483459
 H         4.348876        -1.699389        -1.635320
 H         1.327240        -2.043787        -0.807224
 H         1.668201        -2.287713         0.965202
 H         3.507958         1.540733        -1.884108
