19
Iteration:  2556
 C        -0.106066         0.237785        -0.198140
 C         1.355534         0.046982        -0.003780
 C         2.060171         0.616222         1.203302
 C         3.363367         0.512342         0.448691
 C         3.282609        -0.915033        -0.251870
 O         4.437413        -1.568160        -0.642413
 C         1.883679        -1.460560        -0.112132
 C         2.622314         0.446132        -0.841438
 O         2.662418         1.030317        -2.079492
 H        -0.696740        -0.194092         0.732556
 H        -0.342325         1.286840        -0.391819
 H        -0.534497        -0.324020        -1.073061
 H         1.796990         1.631142         1.287480
 H         1.880859         0.284195         2.170780
 H         4.317262         0.851342         0.711918
 H         4.352235        -2.040396        -1.484992
 H         1.462365        -1.801270        -1.086214
 H         1.617483        -2.128994         0.714642
 H         1.760260         1.266804        -2.262708
