19
Iteration:  2684charge 0 multiplicity 1
 C        -0.178475         0.269080        -0.241138
 C         1.323875         0.054426         0.010455
 C         2.096929         0.510384         1.264978
 C         3.410931         0.431865         0.465597
 C         3.255322        -0.816746        -0.336628
 O         4.474151        -1.545347        -0.641917
 C         1.811078        -1.422753         0.044065
 C         2.625117         0.409696        -0.853410
 O         2.588462         1.040732        -2.183612
 H        -0.717678         0.013650         0.610792
 H        -0.454033         1.250133        -0.478791
 H        -0.432329        -0.432144        -1.074036
 H         1.852032         1.636132         1.492962
 H         1.987238        -0.262467         2.092058
 H         4.417258         0.801674         0.627874
 H         4.438427        -1.753534        -1.539321
 H         1.376926        -2.119008        -0.716352
 H         1.695897        -1.863701         1.054850
 H         3.433122         1.604393        -2.408864
