19
Iteration:  4677charge 0 multiplicity 1
 C        -0.083770         0.257279        -0.389415
 C         1.308256        -0.089404         0.081479
 C         2.073031         0.700463         1.209432
 C         3.342970         0.450169         0.462005
 C         3.180790        -0.902480        -0.358582
 O         4.390840        -1.463806        -0.793718
 C         1.854726        -1.582992         0.111245
 C         2.591734         0.412718        -0.817932
 O         2.791158         1.135591        -1.971295
 H        -0.624706         0.335466         0.459889
 H        -0.166508         1.297326        -0.710018
 H        -0.507144        -0.426542        -1.159960
 H         1.967019         1.752501         1.255396
 H         1.845685         0.221648         2.253712
 H         4.357743         0.822736         0.619113
 H         4.185733        -2.201937        -1.271315
 H         1.220492        -2.084094        -0.594382
 H         1.991500        -2.027662         1.148195
 H         2.349994         0.652071        -2.636468
