19
Iteration:  4056charge 0 multiplicity 1
 C        -0.135947         0.366399        -0.147064
 C         1.285348        -0.019700         0.001290
 C         2.047369         0.590425         1.227010
 C         3.352695         0.501302         0.417486
 C         3.217813        -0.835031        -0.295562
 O         4.432984        -1.426071        -0.696475
 C         1.837433        -1.543890        -0.005133
 C         2.591649         0.353007        -0.874569
 O         2.754419         0.881296        -2.149366
 H        -0.649721        -0.068533         0.706848
 H        -0.063233         1.546731        -0.226220
 H        -0.737918        -0.163770        -0.933693
 H         1.678666         1.627451         1.419188
 H         2.056956         0.169576         2.228966
 H         4.255476         1.006352         0.633093
 H         4.417515        -1.827578        -1.510237
 H         1.582618        -2.172683        -0.862810
 H         1.764311        -2.145994         0.927047
 H         3.079885         1.820369        -2.035618
