19
Iteration:  4212charge 0 multiplicity 1
 C        -0.105998         0.280272        -0.337053
 C         1.333866        -0.034514         0.071866
 C         2.181855         0.647347         1.344805
 C         3.347053         0.515152         0.357535
 C         3.256552        -0.873472        -0.382664
 O         4.409615        -1.588528        -0.595392
 C         1.876704        -1.461613        -0.013999
 C         2.546061         0.342037        -0.902075
 O         2.615039         1.090680        -2.078550
 H        -0.797615         0.425837         0.504061
 H        -0.285968         1.304827        -0.921378
 H        -0.549528        -0.601275        -0.938845
 H         1.947370         1.645796         1.530221
 H         2.179673        -0.094309         2.125755
 H         4.397742         0.850325         0.312605
 H         4.355536        -2.462546        -0.960816
 H         1.388134        -2.028485        -0.828290
 H         1.777537        -2.076022         0.889806
 H         2.698378         2.050734        -1.890190
