19
Iteration:  2699charge 0 multiplicity 1
 C        -0.141152         0.357441        -0.229934
 C         1.316771        -0.060372        -0.030482
 C         2.080134         0.547756         1.278271
 C         3.298777         0.477887         0.419407
 C         3.226168        -0.899783        -0.389716
 O         4.403284        -1.526784        -0.605774
 C         1.974097        -1.509179         0.050695
 C         2.624184         0.415713        -0.940581
 O         2.615007         1.030259        -2.139002
 H        -0.717368         0.250073         0.781998
 H        -0.174620         1.461270        -0.440089
 H        -0.744246        -0.189248        -0.912865
 H         1.719350         1.594273         1.610204
 H         2.044480         0.074390         2.297839
 H         4.306508         0.869712         0.775900
 H         4.641261        -1.640268        -1.645087
 H         1.566233        -2.158599        -0.750146
 H         1.966456        -1.973797         1.021550
 H         3.284781         1.727849        -2.021294
