19
Iteration:  3502charge 0 multiplicity 1
 C        -0.114363         0.291343        -0.285243
 C         1.307128         0.008695         0.040186
 C         2.007538         0.681658         1.239723
 C         3.365290         0.367803         0.432688
 C         3.244990        -0.904485        -0.348377
 O         4.395191        -1.481376        -0.851600
 C         1.890350        -1.419907         0.197711
 C         2.575748         0.264172        -0.854779
 O         2.744709         0.991919        -2.050457
 H        -0.655769         0.285630         0.732921
 H        -0.322180         1.407049        -0.468396
 H        -0.426844        -0.373170        -1.297509
 H         1.805888         1.728173         1.240192
 H         1.847720         0.266412         2.272053
 H         4.336602         0.931101         0.568917
 H         4.128336        -1.601246        -1.880261
 H         1.377933        -2.185078        -0.429202
 H         1.962746        -1.981591         1.124266
 H         3.127032         1.905018        -1.797200
