19
Iteration:  4637charge 0 multiplicity 1
 C        -0.082807         0.236291        -0.384464
 C         1.308199         0.023897        -0.005591
 C         2.026143         0.680756         1.290952
 C         3.350002         0.488460         0.486687
 C         3.228364        -0.903728        -0.326786
 O         4.416464        -1.589738        -0.834896
 C         1.841584        -1.499972         0.146865
 C         2.604056         0.420897        -0.786663
 O         2.769485         1.072999        -1.963980
 H        -0.874218         0.346641         0.504146
 H        -0.062046         1.084563        -1.085160
 H        -0.545249        -0.514793        -1.020879
 H         1.811354         1.794729         1.249155
 H         2.082143         0.056011         2.190374
 H         4.286026         0.962305         0.703942
 H         4.484282        -1.349674        -1.867282
 H         1.436570        -2.147953        -0.673916
 H         1.763691        -2.040594         1.090981
 H         2.081570         0.749436        -2.652595
