19
Iteration:  1252
 C        -0.127513         0.047325        -0.165048
 C         1.329250        -0.079993         0.075247
 C         2.110805         0.763225         1.124372
 C         3.367337         0.558252         0.284986
 C         3.285892        -0.864335        -0.370040
 O         4.427034        -1.541499        -0.642465
 C         2.020678        -1.493654         0.198203
 C         2.524431         0.345385        -0.951999
 O         2.503853         1.131717        -2.126445
 H        -0.708017        -0.547386         0.523053
 H        -0.502556         1.136790        -0.025389
 H        -0.402608        -0.288190        -1.260488
 H         1.835040         1.901041         1.069456
 H         2.352274         0.503515         2.129572
 H         4.195184         1.200728         0.196060
 H         4.083786        -2.391552        -0.537431
 H         1.636179        -2.219029        -0.539996
 H         2.162414        -1.917591         1.162126
 H         3.056804         1.895051        -2.069437
