19
Iteration:  3810charge 0 multiplicity 1
 C        -0.087299         0.303212        -0.380192
 C         1.373682        -0.002564         0.009268
 C         2.029551         0.730172         1.196340
 C         3.388738         0.496874         0.450201
 C         3.248527        -0.969741        -0.401307
 O         4.437465        -1.637487        -0.786414
 C         1.891764        -1.471499         0.229677
 C         2.584563         0.358501        -0.831152
 O         2.569260         1.074481        -1.966577
 H        -0.576290         0.096705         0.504699
 H        -0.463718         1.320693        -0.564138
 H        -0.349409        -0.240930        -1.351062
 H         1.790305         1.881539         1.124076
 H         1.800657         0.199727         2.151223
 H         4.483103         0.737137         0.558566
 H         4.398508        -1.982002        -1.797450
 H         1.494860        -2.254330        -0.469453
 H         1.816354        -1.910071         1.235872
 H         3.079733         1.846235        -1.916372
