19
Iteration:   906
 C        -0.138434         0.114453        -0.093566
 C         1.341168         0.044656         0.040598
 C         2.108235         0.729085         1.168244
 C         3.406664         0.553911         0.390760
 C         3.248995        -0.776938        -0.275906
 O         4.367547        -1.707444        -0.739977
 C         1.900783        -1.401872         0.127846
 C         2.544373         0.366783        -0.956585
 O         2.651413         0.973582        -2.236754
 H        -0.500212        -0.396570         0.870447
 H        -0.543545         1.067452         0.059861
 H        -0.520046        -0.263230        -0.957797
 H         2.018784         1.752160         1.436098
 H         2.023548         0.093304         2.188198
 H         4.347012         1.194605         0.248094
 H         5.118353        -1.295341        -0.586597
 H         1.408655        -1.857871        -0.706207
 H         1.776855        -1.953265         1.041702
 H         2.361918         1.859584        -2.098211
