19
Iteration:  2641
 C        -0.124014         0.229376        -0.297152
 C         1.381803        -0.081454         0.089120
 C         2.040630         0.745428         1.206019
 C         3.440321         0.525288         0.510253
 C         3.212666        -0.886482        -0.327601
 O         4.344102        -1.551734        -0.802599
 C         1.934217        -1.528126         0.024097
 C         2.546105         0.422866        -0.794108
 O         2.642327         1.059574        -2.016210
 H        -0.883524        -0.321771         0.201213
 H        -0.281909         1.244124        -0.157603
 H        -0.237179         0.100568        -1.391343
 H         1.777613         1.871342         0.993523
 H         1.959990         0.344758         2.275102
 H         4.363815         1.046877         0.661397
 H         4.088363        -2.269433        -1.350186
 H         1.508500        -2.101076        -0.829932
 H         1.903392        -2.186771         0.871368
 H         3.570971         1.056739        -2.394764
