19
Iteration:  1989charge 0 multiplicity 1
 C        -0.083112         0.102292        -0.344624
 C         1.356051        -0.027106         0.096985
 C         2.061405         0.674704         1.306278
 C         3.342171         0.568000         0.464058
 C         3.263266        -0.825522        -0.357198
 O         4.311091        -1.671413        -0.784557
 C         1.979865        -1.447655         0.015316
 C         2.607198         0.446688        -0.828397
 O         2.675022         1.104238        -2.048542
 H        -0.673591        -0.457077         0.309188
 H        -0.510822         1.160477        -0.155909
 H        -0.224326        -0.272228        -1.325341
 H         1.808116         1.802482         1.258812
 H         2.076032         0.226941         2.340076
 H         4.294893         1.072568         0.508578
 H         3.897047        -2.391845        -1.136434
 H         1.630657        -2.005759        -0.891211
 H         1.856699        -2.027525         0.970701
 H         2.486937         2.099404        -2.079241
