19
Iteration:  3872charge 0 multiplicity 1
 C        -0.166488         0.289051        -0.167242
 C         1.287782         0.063509         0.024199
 C         2.051695         0.624473         1.297520
 C         3.294474         0.555559         0.520799
 C         3.227342        -0.830275        -0.295977
 O         4.413439        -1.500958        -0.820922
 C         1.843532        -1.395191         0.003089
 C         2.666621         0.380099        -0.854510
 O         2.863271         0.766915        -2.176275
 H        -0.686946        -0.123055         0.902040
 H        -0.390890         1.329721        -0.196167
 H        -0.653851        -0.234204        -1.013842
 H         1.603941         1.559102         1.745177
 H         1.845866        -0.004752         2.180648
 H         4.247097         0.971540         0.934459
 H         4.276111        -1.541524        -1.887534
 H         1.664845        -2.022888        -0.895374
 H         1.509119        -2.002910         0.869130
 H         2.449207         1.591696        -2.325323
