19
Iteration:   159charge 0 multiplicity 1
 C        -0.140756         0.186836        -0.002881
 C         1.362336         0.006344         0.067651
 C         2.033620         0.781995         1.236791
 C         3.400366         0.516074         0.458107
 C         3.203447        -0.788080        -0.321358
 O         4.271719        -1.479695        -0.931750
 C         1.854123        -1.412253         0.161260
 C         2.642921         0.391728        -0.938872
 O         2.773906         0.836715        -2.255996
 H        -0.492712         0.329473         0.966261
 H        -0.490594         1.031776        -0.601646
 H        -0.621679        -0.777401        -0.445943
 H         1.610979         1.858604         1.228923
 H         1.849786         0.264180         2.220911
 H         4.370398         0.908381         0.576435
 H         4.646028        -2.221215        -0.208347
 H         1.411965        -2.103821        -0.587660
 H         1.718237        -1.928413         1.146579
 H         3.729689         0.770287        -2.540327
