19
Iteration:  2266
 C        -0.044382         0.286812        -0.290236
 C         1.323963        -0.110807         0.032278
 C         2.026318         0.666869         1.278794
 C         3.267512         0.594881         0.376239
 C         3.254424        -0.887438        -0.280093
 O         4.319939        -1.589659        -0.838311
 C         1.979261        -1.589706         0.045685
 C         2.536438         0.272631        -0.905571
 O         2.679707         1.122772        -1.986564
 H        -0.769440        -0.001853         0.508083
 H        -0.059656         1.300503        -0.276045
 H        -0.389612        -0.116512        -1.240053
 H         1.615915         1.703747         1.229766
 H         2.012799         0.232941         2.254617
 H         4.211392         1.126783         0.560809
 H         4.957830        -0.899043        -0.655756
 H         1.565460        -2.252551        -0.684887
 H         2.024366        -2.205802         0.978319
 H         3.442113         1.803569        -1.870309
