19
Iteration:  3309
 C        -0.116024         0.191435        -0.404214
 C         1.352692         0.000277         0.066945
 C         2.159282         0.721787         1.257049
 C         3.402933         0.460755         0.416309
 C         3.228180        -0.911387        -0.366589
 O         4.354386        -1.624711        -0.760922
 C         1.832427        -1.474034         0.155218
 C         2.559392         0.364992        -0.852936
 O         2.637594         1.074401        -2.018445
 H        -0.817345         0.011944         0.492715
 H        -0.247293         1.203558        -0.830522
 H        -0.353444        -0.715552        -1.036705
 H         1.963560         1.756551         1.414752
 H         2.065397         0.368002         2.243417
 H         4.322756         1.067807         0.469250
 H         4.768869        -1.116576        -1.481386
 H         1.293821        -2.024778        -0.657545
 H         1.807592        -1.919760         1.157627
 H         3.031057         1.947896        -1.864412
