19
Iteration:  3080
 C        -0.144984         0.388420        -0.163842
 C         1.344468        -0.114266        -0.021918
 C         2.019611         0.585574         1.188592
 C         3.336952         0.529814         0.466741
 C         3.267672        -0.867712        -0.292792
 O         4.383044        -1.495289        -0.733329
 C         1.899746        -1.517653         0.058384
 C         2.640296         0.379727        -0.863881
 O         2.706899         0.975847        -2.153942
 H        -0.688280         0.357687         0.700848
 H        -0.139385         1.417083        -0.418488
 H        -0.646475        -0.285399        -0.903305
 H         1.579098         1.589999         1.131585
 H         1.914580         0.132155         2.333675
 H         4.337219         0.838812         0.826787
 H         4.255178        -1.941215        -1.597759
 H         1.622358        -2.284439        -0.691284
 H         1.877732        -1.980486         1.037563
 H         2.824801         1.886496        -1.985334
