19
Iteration:  2970
 C        -0.067195         0.274238        -0.299873
 C         1.300648        -0.054753         0.080792
 C         2.066870         0.723042         1.287284
 C         3.345089         0.494884         0.408842
 C         3.245728        -0.868886        -0.325948
 O         4.325940        -1.621211        -0.738413
 C         1.960058        -1.526504         0.124124
 C         2.578690         0.360711        -0.878828
 O         2.652652         1.044785        -2.101369
 H        -0.674211        -0.285283         0.482986
 H        -0.342566         1.347766        -0.379427
 H        -0.452669        -0.101119        -1.350360
 H         1.809966         1.726687         1.078854
 H         1.927373         0.381871         2.282163
 H         4.355133         0.950154         0.484746
 H         4.668999        -1.294723        -1.689844
 H         1.621260        -2.259968        -0.672486
 H         1.997977        -2.024631         1.102069
 H         3.005097         1.970124        -1.957403
