19
Iteration:  3812
 C        -0.081265         0.292121        -0.381064
 C         1.369359         0.024034         0.010073
 C         2.041224         0.733280         1.222226
 C         3.392360         0.501937         0.449924
 C         3.240169        -0.988236        -0.392563
 O         4.439405        -1.618900        -0.803091
 C         1.880511        -1.488954         0.230733
 C         2.586753         0.348536        -0.838976
 O         2.581780         1.064397        -1.976200
 H        -0.607684         0.067910         0.451008
 H        -0.417482         1.370589        -0.581685
 H        -0.442790        -0.268030        -1.297558
 H         1.702042         1.904048         1.070384
 H         1.784876         0.141063         2.174527
 H         4.446071         0.741492         0.568629
 H         4.361824        -1.924092        -1.700951
 H         1.455054        -2.216607        -0.478845
 H         1.847248        -1.889802         1.252833
 H         3.120369         1.898142        -1.892818
