19
Iteration:  1295charge 0 multiplicity 1
 C        -0.179337         0.148815        -0.185520
 C         1.329703        -0.072423         0.065957
 C         2.101509         0.747356         1.183214
 C         3.422917         0.559005         0.432299
 C         3.269807        -0.821008        -0.292155
 O         4.373425        -1.382511        -0.887496
 C         1.976855        -1.495554         0.195153
 C         2.575803         0.369714        -0.894447
 O         2.651328         0.847009        -2.139730
 H        -0.842167        -0.349279         0.503582
 H        -0.489190         1.264253         0.015431
 H        -0.585459        -0.275585        -1.223596
 H         1.678135         1.799051         1.208612
 H         1.887915         0.214969         2.091205
 H         4.321027         1.100386         0.374124
 H         4.813689        -1.959921        -0.322802
 H         1.532019        -2.124177        -0.595284
 H         1.902304        -2.028449         1.127659
 H         2.162597         1.724734        -2.110509
