19
Iteration:  1187charge 0 multiplicity 1
 C        -0.098757         0.221360        -0.261540
 C         1.342999        -0.061517         0.108151
 C         2.060638         0.745103         1.200391
 C         3.358266         0.585157         0.344589
 C         3.253720        -0.825129        -0.319311
 O         4.425200        -1.499706        -0.735059
 C         2.037150        -1.584093         0.219487
 C         2.610661         0.339853        -0.918838
 O         2.389965         0.926919        -2.113376
 H        -0.583655         0.173967         0.664316
 H        -0.069216         1.312243        -0.562867
 H        -0.588569        -0.280197        -1.139529
 H         1.616539         1.852484         1.376739
 H         2.186036         0.216590         2.149800
 H         4.349890         0.945426         0.563378
 H         4.937533        -1.160012        -1.341823
 H         1.621703        -2.259396        -0.567741
 H         2.199851        -1.961024         1.213135
 H         3.234213         1.298491        -2.557157
