19
Iteration:  4621charge 0 multiplicity 1
 C        -0.113384         0.297223        -0.341267
 C         1.360181        -0.038294         0.055591
 C         2.004729         0.628135         1.250351
 C         3.344559         0.497395         0.527242
 C         3.240502        -0.851748        -0.348250
 O         4.312367        -1.634197        -0.758206
 C         1.948258        -1.495209         0.049723
 C         2.633497         0.396580        -0.835876
 O         2.724907         1.143364        -2.075962
 H        -0.619690         0.162252         0.538688
 H        -0.235145         1.270431        -0.832232
 H        -0.550026        -0.532039        -0.932739
 H         1.744885         1.667832         1.373351
 H         1.755045         0.165954         2.292678
 H         4.392037         0.744056         0.790826
 H         4.781287        -1.055791        -1.390190
 H         1.450463        -2.248747        -0.556331
 H         1.954544        -1.934309         1.091562
 H         2.449065         0.439014        -2.620150
