19
Iteration:   419charge 0 multiplicity 1
 C        -0.026066         0.342620        -0.296488
 C         1.380670        -0.097496         0.185275
 C         2.193170         0.769259         1.151818
 C         3.368409         0.517543         0.258680
 C         3.213999        -0.927394        -0.337783
 O         4.333072        -1.614510        -0.716450
 C         2.003080        -1.572011         0.235607
 C         2.569454         0.277702        -0.971864
 O         2.409765         1.193107        -2.046189
 H        -0.571485         0.674485         0.560815
 H        -0.009821         1.227536        -0.984871
 H        -0.625450        -0.553728        -0.789553
 H         1.971495         1.777356         0.995092
 H         2.215572         0.535089         2.273160
 H         4.373975         0.951057         0.566840
 H         5.020052        -1.874841         0.056693
 H         1.509694        -2.180228        -0.675636
 H         1.848546        -2.217584         1.115637
 H         2.674957         0.713340        -2.921972
