19
Iteration:  4351
 C        -0.078638         0.252313        -0.289626
 C         1.329046        -0.046459         0.107202
 C         2.046885         0.754377         1.237544
 C         3.385352         0.503184         0.474413
 C         3.202840        -0.866605        -0.305996
 O         4.325246        -1.601921        -0.809213
 C         1.913966        -1.521611         0.127043
 C         2.633934         0.381192        -0.834710
 O         2.738096         1.001919        -2.107216
 H        -0.804885        -0.349703         0.292704
 H        -0.355223         1.226935        -0.214587
 H        -0.027750        -0.043461        -1.320785
 H         1.606203         1.786665         1.138525
 H         1.771313         0.249405         2.185721
 H         4.363519         0.888657         0.719016
 H         4.445322        -1.381702        -1.833151
 H         1.446155        -2.096903        -0.676465
 H         1.764133        -2.002892         1.107345
 H         2.320626         1.868683        -2.224073
