19
Iteration:   635
 C        -0.073049         0.392369        -0.305322
 C         1.337145        -0.035830         0.026420
 C         2.126119         0.771309         1.188310
 C         3.444109         0.538349         0.299045
 C         3.304019        -0.932539        -0.278799
 O         4.395549        -1.555114        -0.808666
 C         1.932529        -1.502326         0.225171
 C         2.555306         0.204882        -0.882751
 O         2.462774         1.047845        -1.989956
 H        -0.735663         0.279617         0.611440
 H        -0.120105         1.324748        -0.827335
 H        -0.439271        -0.421141        -0.969009
 H         1.727531         1.895756         1.258129
 H         2.255900         0.296415         2.201118
 H         4.314557         1.098215         0.118877
 H         4.929762        -2.007822        -0.046250
 H         1.658490        -2.177719        -0.535381
 H         1.990529        -2.106504         1.196424
 H         1.904677         0.732565        -2.798654
