19
Iteration:  4197charge 0 multiplicity 1
 C        -0.151274         0.281263        -0.367361
 C         1.349562         0.055588         0.030656
 C         2.151476         0.569519         1.209312
 C         3.456750         0.449563         0.360445
 C         3.219316        -0.922479        -0.280568
 O         4.419621        -1.593534        -0.594241
 C         1.882098        -1.505613         0.109763
 C         2.611109         0.411216        -0.916192
 O         2.533512         1.140251        -2.076404
 H        -0.868290         0.219342         0.456260
 H        -0.243913         1.183492        -0.968119
 H        -0.392997        -0.577627        -0.978461
 H         1.896404         1.703465         1.235131
 H         2.263847        -0.022096         2.267699
 H         4.445415         0.921696         0.582274
 H         4.055379        -2.119456        -1.470298
 H         1.519688        -2.073317        -0.736656
 H         1.774818        -2.089892         1.036615
 H         2.807827         2.069323        -1.744873
