19
Iteration:  2874charge 0 multiplicity 1
 C        -0.148226         0.255072        -0.196505
 C         1.326302         0.025835         0.106013
 C         2.097942         0.605568         1.304071
 C         3.323138         0.571698         0.389537
 C         3.259529        -0.849180        -0.248517
 O         4.395092        -1.534341        -0.713912
 C         1.856071        -1.450907        -0.084768
 C         2.552805         0.406633        -0.859028
 O         2.771011         0.911323        -2.147495
 H        -0.840095        -0.147934         0.600338
 H        -0.427013         1.240602        -0.371064
 H        -0.445535        -0.234291        -1.103361
 H         2.008080         1.701948         1.640284
 H         2.394838        -0.165518         2.047916
 H         4.169679         1.203617         0.610570
 H         4.156632        -2.131357        -1.377874
 H         1.551691        -1.858624        -1.073363
 H         1.723853        -2.229255         0.686997
 H         2.582098         1.841002        -2.107581
