19
Iteration:  3662
 C        -0.092497         0.180021        -0.274616
 C         1.313192         0.049671         0.054743
 C         2.047341         0.630138         1.288776
 C         3.367081         0.471332         0.575340
 C         3.178268        -0.829469        -0.312443
 O         4.241906        -1.397992        -0.956271
 C         1.864667        -1.394530         0.070693
 C         2.619169         0.455564        -0.759897
 O         2.868992         0.725028        -2.142669
 H        -0.855074        -0.031608         0.696670
 H        -0.287799         1.217849        -0.640192
 H        -0.343857        -0.513304        -1.041190
 H         1.820681         1.651819         1.644193
 H         1.977246         0.080931         2.215236
 H         4.402867         0.599831         0.969857
 H         4.429247        -0.800985        -1.743108
 H         1.269127        -2.093373        -0.514127
 H         1.828984        -1.780896         1.134940
 H         3.155676         1.706466        -2.161063
