19
Iteration:  2501
 C        -0.103912         0.265531        -0.312922
 C         1.244913        -0.087510         0.090630
 C         2.160167         0.670442         1.278544
 C         3.319491         0.548288         0.367478
 C         3.176624        -0.873647        -0.343055
 O         4.461450        -1.410473        -0.731981
 C         1.828032        -1.628898         0.057747
 C         2.508773         0.339428        -0.863813
 O         2.747269         1.035958        -2.020694
 H        -0.869586         0.290952         0.644203
 H        -0.096620         1.282022        -0.684456
 H        -0.508545        -0.416030        -1.144174
 H         1.725204         1.643794         1.361844
 H         2.270585         0.156881         2.242046
 H         4.313024         0.856629         0.308029
 H         4.574563        -1.856813        -1.641582
 H         1.360215        -2.157154        -0.840846
 H         1.585681        -2.197386         0.989163
 H         3.433735         1.617961        -1.784413
