19
Iteration:   834
 C        -0.081713         0.213308        -0.243008
 C         1.391967         0.014114        -0.024776
 C         2.113147         0.757703         1.120609
 C         3.430018         0.531769         0.312407
 C         3.287439        -0.928727        -0.335508
 O         4.390339        -1.652871        -0.750458
 C         1.923771        -1.486720         0.259887
 C         2.574030         0.304460        -0.890247
 O         2.397769         1.085134        -2.002991
 H        -0.607572         0.095158         0.686786
 H        -0.328816         1.299613        -0.493817
 H        -0.468284        -0.376033        -1.182989
 H         1.921520         1.888592         1.266843
 H         1.883943         0.333962         2.056092
 H         4.358375         1.100666         0.580578
 H         5.126965        -1.180121        -0.699662
 H         1.591492        -2.118587        -0.569762
 H         1.866840        -1.947768         1.326369
 H         3.107768         1.139635        -2.611731
