19
Iteration:  2239charge 0 multiplicity 1
 C        -0.114390         0.169894        -0.305101
 C         1.303718        -0.006056         0.034373
 C         2.105302         0.533703         1.245896
 C         3.378524         0.462913         0.433266
 C         3.276944        -0.848114        -0.379035
 O         4.363129        -1.721358        -0.657301
 C         1.936978        -1.419361         0.045445
 C         2.590666         0.500899        -0.908545
 O         2.561845         1.163192        -2.107935
 H        -0.829349        -0.400736         0.293528
 H        -0.346303         1.359059        -0.114636
 H        -0.225151        -0.077824        -1.382092
 H         1.942693         1.581801         1.429982
 H         2.055656        -0.167921         2.116568
 H         4.357850         0.844528         0.790276
 H         5.041788        -1.060441        -0.475680
 H         1.443090        -2.151489        -0.650266
 H         2.002154        -1.866098         1.041930
 H         2.754793         2.165651        -2.109795
