19
Iteration:  4186
 C        -0.066435         0.226234        -0.364666
 C         1.345746        -0.034386        -0.014564
 C         2.141628         0.677435         1.154222
 C         3.386619         0.406192         0.430031
 C         3.266873        -0.896676        -0.304421
 O         4.372728        -1.624874        -0.641738
 C         1.882604        -1.471658         0.148989
 C         2.611023         0.397553        -0.868317
 O         2.520577         1.159517        -2.063173
 H        -0.711342         0.287364         0.525391
 H        -0.176511         1.241879        -0.760153
 H        -0.480412        -0.413577        -1.138111
 H         2.024112         1.801112         1.430090
 H         1.987724         0.088087         2.208290
 H         4.423034         0.717101         0.632807
 H         4.477887        -1.928124        -1.610424
 H         1.480463        -2.121246        -0.615668
 H         1.755123        -1.959611         1.130726
 H         2.843617         2.103055        -1.999117
