19
Iteration:  3284
 C        -0.161689         0.327892        -0.273450
 C         1.338609        -0.051867         0.031583
 C         2.002838         0.661743         1.208999
 C         3.366781         0.439022         0.475159
 C         3.221161        -0.915503        -0.320243
 O         4.336719        -1.533442        -0.833714
 C         1.941873        -1.524930         0.198433
 C         2.598553         0.314672        -0.920321
 O         2.765548         1.023520        -2.128476
 H        -0.764949         0.133184         0.641885
 H        -0.115391         1.392692        -0.506280
 H        -0.572135        -0.278223        -0.955645
 H         1.726928         1.752462         1.470808
 H         1.656916         0.361176         2.186406
 H         4.383477         0.686068         0.683186
 H         4.941800        -0.716017        -1.162919
 H         1.491872        -2.326977        -0.456234
 H         2.068918        -1.751392         1.288499
 H         2.586694         1.909973        -1.910255
