19
Iteration:  3883charge 0 multiplicity 1
 C        -0.159394         0.316380        -0.088685
 C         1.353029         0.049713        -0.023171
 C         1.916860         0.585715         1.259810
 C         3.369335         0.528588         0.547955
 C         3.284774        -0.840207        -0.206569
 O         4.407060        -1.503262        -0.795639
 C         1.831709        -1.403826        -0.013639
 C         2.616773         0.424251        -0.877283
 O         2.855087         0.768032        -2.229015
 H        -0.632391        -0.269022         0.915107
 H        -0.441707         1.334350        -0.027360
 H        -0.573788        -0.104577        -1.015252
 H         1.654078         1.696295         1.354009
 H         1.916142        -0.109543         2.113042
 H         4.396608         0.897317         0.836868
 H         4.281523        -1.373360        -1.793587
 H         1.422295        -1.775160        -0.979329
 H         1.615054        -2.071960         0.844407
 H         2.361018         1.634333        -2.339410
