19
Iteration:   354
 C        -0.118820         0.236733        -0.076736
 C         1.320366        -0.012280         0.088591
 C         2.156060         0.733100         1.263173
 C         3.333583         0.580023         0.341776
 C         3.172832        -0.815380        -0.270702
 O         4.194710        -1.428624        -0.931955
 C         1.896026        -1.473371         0.155764
 C         2.556253         0.385404        -0.883073
 O         2.885657         0.812447        -2.177219
 H        -0.548461        -0.199356         0.787543
 H        -0.417159         1.306969        -0.047106
 H        -0.604592        -0.243576        -1.023800
 H         1.747988         1.719322         1.203655
 H         2.223963         0.375398         2.407748
 H         4.331675         1.091130         0.398104
 H         4.888000        -1.744264        -0.169535
 H         1.586362        -2.111179        -0.743284
 H         1.907742        -2.085407         1.014879
 H         2.538850         0.174267        -2.820877
