19
Iteration:   601charge 0 multiplicity 1
 C         0.046955         0.349295        -0.293329
 C         1.420546        -0.017141         0.142552
 C         2.103058         0.701031         1.284457
 C         3.408040         0.473662         0.417868
 C         3.211251        -0.855580        -0.344813
 O         4.308340        -1.533820        -0.817973
 C         1.941872        -1.478449         0.169687
 C         2.525471         0.354700        -0.896981
 O         2.457864         0.960609        -2.185782
 H        -0.745155         0.318628         0.580693
 H        -0.113028         1.287915        -0.782275
 H        -0.246711        -0.427031        -0.967917
 H         1.822735         1.844498         1.382313
 H         2.180895         0.242598         2.312605
 H         4.432490         0.894393         0.498577
 H         5.019766        -1.380549         0.004967
 H         1.533855        -2.175355        -0.509082
 H         2.085484        -1.937841         1.226098
 H         2.608739         0.205604        -2.751485
