19
Iteration:  4470
 C        -0.091436         0.244196        -0.323091
 C         1.355390         0.024996         0.023336
 C         2.006133         0.703686         1.252163
 C         3.353008         0.387384         0.451630
 C         3.206628        -0.911039        -0.365811
 O         4.424870        -1.505028        -0.749025
 C         1.882065        -1.465832         0.171073
 C         2.622252         0.379102        -0.842602
 O         2.638852         1.095614        -2.056290
 H        -0.704695        -0.037122         0.623643
 H        -0.367524         1.212997        -0.691870
 H        -0.281075        -0.535670        -1.108738
 H         2.050930         1.724127         1.350151
 H         1.914846         0.157687         2.089779
 H         4.336714         0.769962         0.728868
 H         4.434266        -1.804096        -1.627159
 H         1.310044        -1.904155        -0.584080
 H         1.878026        -1.995483         1.128846
 H         3.135635         0.651062        -2.721406
