19
Iteration:  2480
 C        -0.141490         0.239320        -0.351810
 C         1.332380         0.000157         0.076500
 C         2.085729         0.699162         1.212173
 C         3.375399         0.370323         0.483802
 C         3.209030        -0.923864        -0.265692
 O         4.407440        -1.386082        -0.809546
 C         1.864548        -1.478659         0.082464
 C         2.637344         0.308316        -0.849182
 O         2.648804         1.027874        -2.008379
 H        -0.881156        -0.224323         0.437935
 H        -0.404321         1.267296        -0.547864
 H        -0.334915        -0.366934        -1.268575
 H         1.845202         1.754534         1.280544
 H         1.902181         0.277183         2.270095
 H         4.339214         0.746380         0.554612
 H         4.216268        -1.613683        -1.852317
 H         1.421634        -2.081632        -0.774711
 H         1.817479        -2.041729         1.072506
 H         3.559949         1.469871        -2.040898
