19
Iteration:  3276
 C        -0.095993         0.349420        -0.215909
 C         1.316850        -0.063424        -0.006685
 C         1.967088         0.718681         1.276257
 C         3.332033         0.465393         0.502127
 C         3.212801        -0.880340        -0.403156
 O         4.308156        -1.520332        -0.815968
 C         1.982825        -1.569429         0.156214
 C         2.593698         0.305549        -0.922400
 O         2.805576         0.959146        -2.109020
 H        -0.594455         0.094774         0.816740
 H        -0.217802         1.436631        -0.468692
 H        -0.692308        -0.125768        -1.130226
 H         1.687938         1.754793         1.257561
 H         1.804778         0.214152         2.231628
 H         4.244340         1.019352         0.673019
 H         5.042811        -0.821703        -1.159721
 H         1.390815        -2.288199        -0.483399
 H         2.049397        -2.035880         1.146451
 H         2.492634         1.836942        -2.031054
