19
Iteration:   736charge 0 multiplicity 1
 C        -0.162223         0.221023        -0.030533
 C         1.334495        -0.061645         0.138509
 C         2.044160         0.781296         1.207890
 C         3.332163         0.573016         0.430471
 C         3.249119        -0.774565        -0.374491
 O         4.313134        -1.451029        -0.961892
 C         1.918138        -1.482855         0.135260
 C         2.551462         0.359972        -0.863386
 O         2.824104         0.822620        -2.188664
 H        -0.741163        -0.311224         0.659041
 H        -0.245037         1.310986         0.219274
 H        -0.582974         0.067768        -1.121656
 H         1.669540         1.912294         1.115970
 H         1.822619         0.537915         2.278019
 H         4.427793         0.887582         0.543933
 H         4.733390        -1.776809        -0.076289
 H         1.489456        -2.119131        -0.666909
 H         1.879939        -1.871135         1.131168
 H         2.881788         0.053572        -2.715411
