19
Iteration:  2441charge 0 multiplicity 1
 C        -0.072189         0.193642        -0.339006
 C         1.354685        -0.013785         0.057436
 C         1.982468         0.617474         1.292386
 C         3.330309         0.610285         0.526291
 C         3.300374        -0.843611        -0.338314
 O         4.276142        -1.633788        -0.781765
 C         1.991229        -1.467043         0.052174
 C         2.688107         0.397798        -0.842710
 O         2.608922         1.049503        -2.051637
 H        -0.766762        -0.532640         0.095831
 H        -0.437837         1.275451        -0.141367
 H        -0.073988         0.130682        -1.431626
 H         1.560245         1.618685         1.597471
 H         1.999395         0.113850         2.233946
 H         4.375428         0.924122         0.712985
 H         4.106024        -1.587753        -1.693083
 H         1.696545        -2.061359        -0.780490
 H         1.919492        -2.025645         0.971233
 H         3.293428         1.583611        -2.426245
