19
Iteration:  2846
 C        -0.129217         0.266179        -0.156684
 C         1.326806        -0.027949         0.006124
 C         2.055560         0.662199         1.191432
 C         3.344652         0.362347         0.460528
 C         3.148132        -0.892408        -0.412716
 O         4.416023        -1.414660        -0.701788
 C         1.833052        -1.509636         0.094334
 C         2.613895         0.412748        -0.856095
 O         2.795932         0.960135        -2.169069
 H        -0.807571        -0.314298         0.463874
 H        -0.273220         1.386035         0.215278
 H        -0.615672         0.104691        -1.216767
 H         1.946937         1.718668         1.315361
 H         2.005456         0.174343         2.193190
 H         4.370424         0.626342         0.902030
 H         4.524243        -1.454223        -1.683442
 H         1.365254        -2.314269        -0.478590
 H         1.955967        -1.838420         1.156925
 H         2.564463         1.927207        -2.165495
