19
Iteration:  4192
 C        -0.106693         0.248378        -0.365199
 C         1.330197         0.038828        -0.004473
 C         2.138850         0.606235         1.193488
 C         3.438260         0.421610         0.393812
 C         3.241995        -0.904004        -0.278986
 O         4.395567        -1.610814        -0.621560
 C         1.884007        -1.495549         0.149614
 C         2.622545         0.417278        -0.897787
 O         2.522196         1.156759        -2.068499
 H        -0.875855         0.273090         0.448592
 H        -0.195035         1.264756        -0.826754
 H        -0.463875        -0.566461        -1.039043
 H         2.002951         1.691892         1.164440
 H         2.263390         0.013441         2.047616
 H         4.408112         0.813461         0.613127
 H         4.289194        -1.979486        -1.438238
 H         1.503190        -2.124894        -0.701358
 H         1.730474        -2.109207         1.064968
 H         2.798084         2.025448        -1.874838
