19
Iteration:  3476
 C        -0.138195         0.230454        -0.317441
 C         1.298066        -0.050237         0.132022
 C         2.146203         0.745336         1.303654
 C         3.348544         0.540925         0.425441
 C         3.172225        -0.898021        -0.315468
 O         4.289460        -1.475094        -0.910081
 C         1.829438        -1.560422         0.127092
 C         2.571436         0.377374        -0.803221
 O         2.898520         0.894255        -2.065585
 H        -0.813043         0.175964         0.511773
 H        -0.264178         1.261755        -0.612798
 H        -0.425673        -0.464161        -1.206463
 H         1.726027         1.884621         1.382370
 H         2.171319         0.446883         2.391466
 H         4.340040         0.794791         0.665557
 H         4.323336        -0.987329        -1.808943
 H         1.356896        -2.141713        -0.662225
 H         1.847542        -2.202160         1.072906
 H         2.739477         1.918698        -2.050574
