19
Iteration:  2654charge 0 multiplicity 1
 C        -0.051773         0.189626        -0.309605
 C         1.316826        -0.014871         0.074373
 C         2.158624         0.717154         1.294633
 C         3.360110         0.496095         0.466118
 C         3.210748        -0.808834        -0.317187
 O         4.336815        -1.498190        -0.740573
 C         1.867083        -1.501235        -0.072237
 C         2.645329         0.343962        -0.800164
 O         2.613268         1.024517        -2.043936
 H        -0.751020        -0.375900         0.447089
 H        -0.402568         1.203856        -0.237604
 H        -0.214200        -0.284706        -1.276779
 H         1.749435         1.809151         1.220385
 H         1.967949         0.525970         2.384602
 H         4.432362         0.875879         0.515666
 H         3.960437        -2.289821        -1.369149
 H         1.459040        -1.922194        -1.026600
 H         1.704995        -2.131392         0.776913
 H         3.544226         1.140612        -2.210107
