19
Iteration:   950charge 0 multiplicity 1
 C        -0.027948         0.324969        -0.184143
 C         1.379115        -0.033502         0.125096
 C         2.075961         0.746443         1.256825
 C         3.382044         0.497877         0.396397
 C         3.209914        -0.869619        -0.264374
 O         4.354399        -1.435862        -0.935461
 C         1.927303        -1.528677         0.198981
 C         2.504748         0.310697        -0.854745
 O         2.681460         0.832304        -2.195404
 H        -0.811392         0.044146         0.605249
 H        -0.218920         1.338246        -0.360670
 H        -0.315749        -0.110200        -1.067688
 H         1.544462         1.655860         1.295030
 H         1.867563         0.304567         2.338368
 H         4.327669         1.101488         0.670773
 H         5.106576        -1.071002        -0.664136
 H         1.554627        -2.065845        -0.641528
 H         1.798783        -2.022526         1.127962
 H         1.900519         1.125147        -2.610011
