19
Iteration:  2664
 C        -0.084896         0.180501        -0.305325
 C         1.398110         0.031428         0.067720
 C         2.117207         0.700884         1.323647
 C         3.340586         0.466771         0.446166
 C         3.212819        -0.908213        -0.277046
 O         4.386348        -1.491322        -0.717243
 C         1.826580        -1.441470        -0.031822
 C         2.590776         0.420638        -0.867641
 O         2.617420         1.009455        -2.068768
 H        -0.566068        -0.332257         0.541667
 H        -0.475758         1.148411        -0.429412
 H        -0.325823        -0.383605        -1.204714
 H         1.979533         1.858242         1.380883
 H         2.227426         0.113089         2.278704
 H         4.398842         0.754594         0.676702
 H         4.141278        -2.186232        -1.413082
 H         1.465687        -1.781273        -1.033439
 H         1.572381        -2.211754         0.665414
 H         3.441285         1.360983        -2.450012
