19
Iteration:  4072charge 0 multiplicity 1
 C        -0.184121         0.313540        -0.122464
 C         1.300728        -0.010165        -0.001683
 C         2.050747         0.646247         1.212326
 C         3.367314         0.507717         0.456239
 C         3.245864        -0.869159        -0.215556
 O         4.387989        -1.396535        -0.744520
 C         1.876651        -1.466196        -0.050997
 C         2.538109         0.414517        -0.838249
 O         2.825878         0.779406        -2.106099
 H        -0.805394        -0.143820         0.704937
 H        -0.196631         1.330953         0.034506
 H        -0.551435        -0.026550        -1.081407
 H         1.767470         1.798866         0.987529
 H         2.091330        -0.196565         2.062401
 H         4.435591         0.877219         0.582330
 H         4.172824        -1.750562        -1.717937
 H         1.487926        -1.987595        -0.965387
 H         1.644621        -2.251333         0.708696
 H         2.930915         1.812325        -2.277401
