19
Iteration:    94
 C        -0.082155         0.285131        -0.179131
 C         1.363992         0.004849         0.019744
 C         2.094080         0.790671         1.169301
 C         3.436904         0.503756         0.354021
 C         3.171710        -0.872829        -0.383548
 O         4.331883        -1.539948        -0.804968
 C         1.960032        -1.463532         0.276273
 C         2.538108         0.346707        -0.891367
 O         2.658182         0.891796        -2.149485
 H        -0.740494        -0.566898         0.209049
 H        -0.455095         1.242222         0.239187
 H        -0.341258         0.294104        -1.345954
 H         1.648218         1.904540         1.297133
 H         2.112129         0.296630         2.231077
 H         4.431697         0.699428         0.655521
 H         5.124670        -1.533249        -0.100225
 H         1.502105        -2.238337        -0.357022
 H         1.968052        -1.857100         1.327711
 H         1.855251         1.019924        -2.584370
