19
Iteration:  2068charge 0 multiplicity 1
 C        -0.088718         0.356229        -0.233905
 C         1.344218        -0.124882         0.056831
 C         2.116663         0.545284         1.323709
 C         3.308185         0.488855         0.453655
 C         3.208156        -0.852244        -0.356813
 O         4.409451        -1.459507        -0.691274
 C         1.892118        -1.558747         0.022785
 C         2.506369         0.429930        -0.903590
 O         2.686687         1.078445        -2.098330
 H        -0.819356        -0.007367         0.564127
 H        -0.086806         1.418244        -0.304522
 H        -0.481013         0.114726        -1.236898
 H         1.830431         1.606066         1.629032
 H         2.175169        -0.005879         2.291813
 H         4.246647         1.135238         0.419116
 H         4.483724        -1.743609        -1.622088
 H         1.433031        -2.113692        -0.786570
 H         1.986367        -2.208371         0.951105
 H         2.985087         0.524190        -2.918487
