19
Iteration:  4451
 C        -0.152864         0.271995        -0.276185
 C         1.338262        -0.016264         0.022823
 C         2.127660         0.681427         1.249775
 C         3.375017         0.486260         0.472287
 C         3.276012        -0.891702        -0.289554
 O         4.466762        -1.583436        -0.656488
 C         1.844635        -1.485372        -0.021631
 C         2.606901         0.331047        -0.908735
 O         2.558766         1.124616        -2.041741
 H        -0.737430         0.314285         0.762461
 H        -0.158484         1.220965        -0.767873
 H        -0.654753        -0.521377        -0.897014
 H         1.695095         1.736119         1.041043
 H         1.980637         0.219655         2.279011
 H         4.408030         0.905900         0.503098
 H         4.415275        -1.669761        -1.643522
 H         1.503455        -2.179516        -0.867255
 H         1.630260        -1.933255         0.977961
 H         3.259231         0.753027        -2.494570
