19
Iteration:  4284charge 0 multiplicity 1
 C        -0.154824         0.224172        -0.195791
 C         1.314182        -0.022683         0.103774
 C         2.051031         0.744396         1.336041
 C         3.359496         0.504908         0.443848
 C         3.126238        -0.825877        -0.347517
 O         4.346768        -1.485608        -0.801576
 C         1.833177        -1.488831         0.047669
 C         2.609244         0.374008        -0.843927
 O         2.885972         0.832856        -2.157494
 H        -0.963784        -0.265179         0.397739
 H        -0.311150         1.223019         0.012950
 H        -0.364488         0.068282        -1.223550
 H         1.732731         1.804500         1.340236
 H         2.111360         0.043459         2.143291
 H         4.414540         0.893376         0.473934
 H         4.578528        -1.031280        -1.610825
 H         1.564553        -2.091520        -0.821681
 H         1.738415        -2.134178         0.957104
 H         2.853160         1.832620        -2.154446
