19
Iteration:   645charge 0 multiplicity 1
 C        -0.075244         0.295241        -0.269908
 C         1.372426        -0.002606         0.042079
 C         2.186494         0.748111         1.132719
 C         3.367760         0.525151         0.278940
 C         3.297098        -0.866955        -0.211960
 O         4.380556        -1.581416        -0.800705
 C         1.946841        -1.520615         0.199803
 C         2.511027         0.249470        -0.944348
 O         2.525229         1.064962        -1.976428
 H        -0.743317         0.330379         0.692567
 H        -0.162264         1.293167        -0.666466
 H        -0.487949        -0.374190        -1.001283
 H         1.912401         1.879379         1.135731
 H         1.935384         0.399821         2.149962
 H         4.280177         1.045309         0.138054
 H         5.007916        -2.158472        -0.130595
 H         1.603137        -2.116081        -0.581726
 H         1.789321        -1.885480         1.280914
 H         1.833893         0.746391        -2.615673
