19
Iteration:  1928charge 0 multiplicity 1
 C        -0.082635         0.346671        -0.215881
 C         1.311058        -0.072165         0.037080
 C         1.992077         0.683005         1.188733
 C         3.324834         0.412597         0.502175
 C         3.261711        -0.892102        -0.357655
 O         4.490706        -1.431340        -0.743878
 C         1.925675        -1.572458         0.026714
 C         2.563929         0.315568        -0.861117
 O         2.598736         1.057383        -2.045180
 H        -0.573467         0.088672         0.827834
 H        -0.109304         1.330035        -0.494121
 H        -0.733035        -0.185099        -0.983127
 H         1.756797         1.708486         1.221704
 H         1.758697         0.402595         2.227860
 H         4.243055         0.804433         0.788975
 H         4.677245        -1.342239        -1.787579
 H         1.459223        -2.160106        -0.780633
 H         1.783997        -2.274085         0.867107
 H         3.481259         0.988464        -2.402140
