19
Iteration:  1912
 C        -0.133128         0.354938        -0.169734
 C         1.369027        -0.101626         0.004927
 C         1.984034         0.606831         1.194754
 C         3.310759         0.563028         0.526447
 C         3.297559        -0.878773        -0.246076
 O         4.443619        -1.529459        -0.734131
 C         1.957256        -1.544668        -0.099393
 C         2.675065         0.379898        -0.811621
 O         2.529259         0.989362        -2.044457
 H        -0.749852         0.334418         0.685955
 H        -0.122569         1.521796        -0.489773
 H        -0.557339        -0.137531        -1.012913
 H         1.590120         1.683586         1.051089
 H         1.861150         0.167692         2.188274
 H         4.392484         1.041543         0.602350
 H         4.372506        -1.216264        -1.766243
 H         1.740290        -2.059169        -1.058347
 H         1.819222        -2.234163         0.734937
 H         3.295431         1.007594        -2.560084
