19
Iteration:  1789
 C        -0.113722         0.059299        -0.225906
 C         1.357015         0.007100         0.030203
 C         2.050239         0.650837         1.245002
 C         3.368350         0.518773         0.458337
 C         3.229157        -0.823120        -0.385844
 O         4.269130        -1.672741        -0.741555
 C         1.917586        -1.395976         0.106986
 C         2.631569         0.430619        -0.930709
 O         2.765826         1.111365        -2.087023
 H        -0.629246        -0.519495         0.471680
 H        -0.498178         1.143539        -0.275328
 H        -0.369281        -0.278130        -1.280341
 H         1.693417         1.662372         1.524454
 H         1.979237         0.196133         2.240596
 H         4.320303         0.874101         0.579722
 H         4.945100        -1.336525        -1.204267
 H         1.331405        -1.973657        -0.632720
 H         1.869743        -2.060289         0.950530
 H         2.256330         1.930071        -1.999244
