19
Iteration:  4882
 C        -0.191361         0.390561        -0.175656
 C         1.298128        -0.104732         0.035011
 C         2.069499         0.638235         1.258044
 C         3.241289         0.481174         0.472413
 C         3.176098        -0.906708        -0.355612
 O         4.395182        -1.465572        -0.705609
 C         1.907063        -1.581863        -0.004755
 C         2.600019         0.412651        -0.907798
 O         2.887905         0.957329        -2.133830
 H        -0.794559         0.174086         0.660387
 H        -0.379230         1.422109        -0.313544
 H        -0.758997        -0.130954        -0.853761
 H         1.687611         1.702910         1.498893
 H         2.044566         0.283791         2.315851
 H         4.222252         0.940778         0.583456
 H         4.411586        -1.696610        -1.620103
 H         1.611240        -2.151360        -0.896212
 H         1.789265        -2.140014         0.906469
 H         3.171483         1.798625        -2.014916
