19
Iteration:  1701
 C        -0.107203         0.400802        -0.223312
 C         1.302166        -0.126135         0.029137
 C         2.015388         0.593534         1.236714
 C         3.336558         0.459457         0.495845
 C         3.242438        -0.832077        -0.349618
 O         4.445362        -1.348804        -0.840235
 C         1.949682        -1.556552         0.130163
 C         2.561809         0.342144        -0.862116
 O         2.689534         0.936897        -2.091341
 H        -0.858821         0.286164         0.523614
 H        -0.160258         1.542119        -0.608342
 H        -0.275455        -0.054630        -1.289763
 H         1.647082         1.641574         1.370139
 H         2.011177         0.132935         2.233293
 H         4.265494         0.796357         0.653008
 H         4.378880        -2.360748        -1.015687
 H         1.787584        -2.365034        -0.626493
 H         1.999296        -2.167597         1.006159
 H         2.178066         1.796752        -2.127514
