19
Iteration:  3967charge 0 multiplicity 1
 C        -0.051273         0.210657        -0.370963
 C         1.368367         0.046073         0.031767
 C         2.028370         0.718341         1.216685
 C         3.398958         0.455097         0.457509
 C         3.216458        -0.896240        -0.392676
 O         4.304512        -1.611297        -0.744061
 C         1.949723        -1.498588         0.168517
 C         2.658997         0.404935        -0.841405
 O         2.612675         1.055437        -2.040831
 H        -0.853691        -0.222607         0.315673
 H        -0.360931         1.348531        -0.486820
 H        -0.305432        -0.196353        -1.408832
 H         1.863828         1.819436         1.409363
 H         2.011015         0.483086         2.288345
 H         4.414523         0.914475         0.594203
 H         4.103029        -2.254264        -1.331446
 H         1.609613        -2.257924        -0.540321
 H         2.124670        -2.033663         1.130138
 H         2.619622         2.036350        -1.947435
