19
Iteration:  3343
 C        -0.023225         0.186168        -0.347766
 C         1.402028        -0.075137         0.102334
 C         2.105412         0.680298         1.227155
 C         3.389934         0.555339         0.506361
 C         3.245414        -0.842535        -0.334269
 O         4.321088        -1.724628        -0.701757
 C         1.906598        -1.469411         0.059470
 C         2.632647         0.450395        -0.847367
 O         2.543925         1.126092        -2.106737
 H        -0.745680        -0.058715         0.483633
 H        -0.295590         1.240655        -0.543143
 H        -0.345286        -0.274141        -1.363384
 H         1.873447         1.668959         1.093072
 H         1.977438         0.213139         2.150750
 H         4.323570         1.176075         0.656111
 H         4.030316        -2.113139        -1.457992
 H         1.446103        -2.081946        -0.738126
 H         1.824813        -2.062343         0.985029
 H         2.902272         2.071581        -2.018152
