19
Iteration:  3768charge 0 multiplicity 1
 C        -0.008054         0.218200        -0.294525
 C         1.339457        -0.030167         0.059209
 C         2.176016         0.674029         1.247487
 C         3.374073         0.513445         0.308253
 C         3.223391        -0.910612        -0.338996
 O         4.391680        -1.656580        -0.530984
 C         1.850967        -1.526638         0.027191
 C         2.603820         0.410841        -0.915201
 O         2.491947         1.198973        -2.084307
 H        -0.702419        -0.287262         0.276037
 H        -0.295684         1.321378        -0.343456
 H        -0.183868        -0.183568        -1.359367
 H         1.882188         1.829756         1.315734
 H         2.295754        -0.015090         2.159452
 H         4.417781         0.889872         0.461858
 H         4.184761        -2.145245        -1.261878
 H         1.361663        -2.022056        -0.839627
 H         1.709258        -2.111264         0.923748
 H         3.207835         1.887409        -1.904345
