19
Iteration:  2585
 C        -0.134180         0.243339        -0.293896
 C         1.351120        -0.028422         0.124768
 C         2.156746         0.669004         1.282918
 C         3.345245         0.509962         0.372551
 C         3.166818        -0.916532        -0.334742
 O         4.411884        -1.505174        -0.660631
 C         1.870205        -1.546287        -0.015105
 C         2.544041         0.394185        -0.853117
 O         2.739427         1.111868        -2.046394
 H        -0.859846        -0.366882         0.122736
 H        -0.437750         1.261608        -0.179336
 H        -0.130536         0.027817        -1.388756
 H         1.802873         1.801048         1.270051
 H         2.173622         0.322309         2.388771
 H         4.393160         0.664071         0.575954
 H         4.419484        -1.765844        -1.517613
 H         1.377402        -2.123622        -0.825060
 H         1.850366        -2.101520         0.934004
 H         2.133771         0.708443        -2.760064
