19
Iteration:  2305charge 0 multiplicity 1
 C        -0.150556         0.196405        -0.288417
 C         1.334463         0.041025         0.018670
 C         2.033584         0.661701         1.260034
 C         3.315275         0.361221         0.616066
 C         3.186495        -0.896963        -0.300313
 O         4.354657        -1.452781        -0.897501
 C         1.916439        -1.490013         0.054358
 C         2.656230         0.408000        -0.839813
 O         2.737969         0.962238        -2.111246
 H        -0.689600         0.274796         0.631973
 H        -0.363580         1.195291        -0.924189
 H        -0.546516        -0.646006        -0.867158
 H         2.043279         1.759700         1.389866
 H         1.868204         0.120212         2.309326
 H         4.392246         0.661621         0.875099
 H         4.928516        -0.754667        -1.157965
 H         1.559612        -2.137702        -0.777042
 H         1.855282        -1.880788         1.073997
 H         2.702749         1.901259        -1.970457
