19
Iteration:  2645charge 0 multiplicity 1
 C        -0.102954         0.205231        -0.292657
 C         1.360085        -0.070317         0.093416
 C         2.080525         0.745744         1.234100
 C         3.445507         0.533499         0.523638
 C         3.216865        -0.901875        -0.333814
 O         4.327965        -1.521042        -0.773693
 C         1.916432        -1.522666        -0.034126
 C         2.566536         0.423579        -0.825541
 O         2.629570         1.041766        -2.014881
 H        -0.934718        -0.430955         0.265775
 H        -0.257212         1.347062        -0.277181
 H        -0.239228         0.056053        -1.364266
 H         1.763743         1.754977         1.041666
 H         1.919511         0.480082         2.274801
 H         4.461895         1.072945         0.569534
 H         3.948943        -2.317873        -1.365458
 H         1.505895        -2.090693        -0.892224
 H         1.883061        -2.147873         0.884072
 H         3.565875         1.020370        -2.194364
