19
Iteration:  2761charge 0 multiplicity 1
 C        -0.114189         0.228937        -0.341058
 C         1.364015         0.115079         0.044151
 C         2.064251         0.584561         1.304840
 C         3.416924         0.378953         0.516609
 C         3.194298        -0.880204        -0.409592
 O         4.382393        -1.481634        -0.759391
 C         1.894512        -1.445303         0.127389
 C         2.635149         0.495704        -0.791221
 O         2.663402         0.958798        -2.146060
 H        -0.584108        -0.262090         0.474501
 H        -0.588218         1.154072        -0.635387
 H        -0.189508        -0.345879        -1.314404
 H         1.937329         1.697994         1.327382
 H         1.868150         0.086289         2.260881
 H         4.452414         0.690327         0.906157
 H         4.147304        -2.055380        -1.633662
 H         1.407803        -2.179461        -0.584439
 H         1.880925        -1.925856         1.118226
 H         2.218760         1.806551        -2.147666
