19
Iteration:  1966charge 0 multiplicity 1
 C        -0.128218         0.116773        -0.367621
 C         1.324431         0.026161         0.098960
 C         2.139625         0.598529         1.262243
 C         3.369272         0.506883         0.438143
 C         3.181958        -0.845450        -0.336840
 O         4.398704        -1.468148        -0.789825
 C         1.885780        -1.498420         0.147378
 C         2.528183         0.370725        -0.880993
 O         2.691390         1.121075        -2.081805
 H        -0.758009        -0.200247         0.383545
 H        -0.465397         1.240913        -0.434503
 H        -0.302363        -0.451332        -1.246853
 H         1.921844         1.710310         1.553652
 H         2.145496        -0.121663         2.143829
 H         4.457243         0.858737         0.561856
 H         4.022193        -2.404567        -1.195904
 H         1.380809        -2.031551        -0.724666
 H         1.851433        -1.996050         1.154120
 H         3.428661         1.685399        -1.889706
