19
Iteration:   340charge 0 multiplicity 1
 C        -0.102340         0.221862         0.019622
 C         1.328507        -0.043673         0.153421
 C         2.053012         0.787953         1.099871
 C         3.347190         0.583423         0.395870
 C         3.175432        -0.823936        -0.337382
 O         4.230680        -1.435403        -0.955931
 C         1.900527        -1.452211         0.163654
 C         2.534766         0.371300        -0.927342
 O         2.900941         0.809251        -2.134270
 H        -0.858228        -0.415001         0.619660
 H        -0.183200         1.281326         0.204207
 H        -0.392693         0.066160        -1.039019
 H         1.828961         1.845679         1.318321
 H         2.061302         0.200073         2.124690
 H         4.325580         0.887165         0.605693
 H         4.865675        -1.618195        -0.394597
 H         1.250712        -2.007213        -0.606580
 H         1.866927        -1.917830         1.203338
 H         3.019590        -0.005503        -2.720904
