19
Iteration:  4313
 C        -0.116871         0.166245        -0.280955
 C         1.333288         0.046434         0.118112
 C         2.056908         0.669199         1.272805
 C         3.400827         0.518656         0.495213
 C         3.243919        -0.820595        -0.284970
 O         4.235216        -1.555502        -0.920356
 C         1.834840        -1.420880         0.152409
 C         2.570434         0.479289        -0.825684
 O         2.840308         0.806581        -2.118390
 H        -0.833869        -0.707164         0.021400
 H        -0.644470         1.224841        -0.025242
 H        -0.234046         0.075849        -1.421976
 H         1.726507         1.782766         1.346389
 H         1.998524         0.029844         2.196896
 H         4.357721         1.031049         0.565444
 H         4.809444        -0.884897        -1.470369
 H         1.702243        -2.088496        -0.716229
 H         1.746816        -1.933424         1.128850
 H         3.018439         1.810949        -2.071072
