19
Iteration:  4698
 C        -0.131834         0.283265        -0.232170
 C         1.330870         0.016616        -0.022802
 C         1.983525         0.625903         1.271099
 C         3.313993         0.479516         0.468417
 C         3.275198        -0.921606        -0.396079
 O         4.432754        -1.588357        -0.690300
 C         1.889210        -1.450456         0.064993
 C         2.608267         0.348861        -0.912199
 O         2.689948         1.185671        -2.035932
 H        -0.805439         0.021199         0.518837
 H        -0.297653         1.398073        -0.402610
 H        -0.206223        -0.256387        -1.239630
 H         1.722175         1.611321         1.432751
 H         2.005912         0.159875         2.256903
 H         4.352285         0.735592         0.711783
 H         4.265193        -2.331210        -1.399895
 H         1.526303        -2.094413        -0.739209
 H         1.920453        -1.915696         1.110494
 H         3.060260         0.570551        -2.821961
