19
Iteration:  1740charge 0 multiplicity 1
 C        -0.140415         0.324422        -0.166030
 C         1.274279        -0.046546         0.073574
 C         2.064396         0.564898         1.221724
 C         3.293491         0.535472         0.487401
 C         3.238156        -0.872698        -0.287937
 O         4.414204        -1.373220        -0.897122
 C         1.901419        -1.476994        -0.040992
 C         2.598658         0.364797        -0.856638
 O         2.725349         0.850644        -2.121207
 H        -0.747875         0.008130         0.778054
 H        -0.260656         1.359065        -0.345067
 H        -0.555346        -0.229025        -0.973522
 H         1.731435         1.596834         1.390620
 H         1.929421         0.152148         2.268042
 H         4.324491         1.033929         0.785727
 H         5.000102        -1.797838        -0.097884
 H         1.663487        -2.131376        -0.921311
 H         1.683349        -2.122152         0.901814
 H         2.975027         1.798150        -1.984630
