19
Iteration:  3491
 C        -0.103786         0.306460        -0.250056
 C         1.306138        -0.006719         0.117371
 C         2.031444         0.716190         1.227724
 C         3.352930         0.433291         0.460343
 C         3.195810        -0.933899        -0.332338
 O         4.393725        -1.474481        -0.910373
 C         1.852779        -1.491393         0.189256
 C         2.546070         0.316294        -0.864084
 O         2.817666         0.946606        -2.033186
 H        -0.964479        -0.008532         0.405135
 H        -0.136714         1.312649        -0.768324
 H        -0.453844        -0.492237        -1.137391
 H         1.883254         1.761191         1.272844
 H         1.904565         0.256189         2.246303
 H         4.323723         0.994174         0.357511
 H         4.400726        -1.379438        -1.951266
 H         1.400938        -2.069456        -0.630511
 H         1.804665        -1.838242         1.219619
 H         3.019404         1.848731        -1.794476
