19
Iteration:   849charge 0 multiplicity 1
 C        -0.090147         0.196670        -0.196626
 C         1.357559        -0.030810         0.070953
 C         2.124321         0.800555         1.139736
 C         3.361317         0.499004         0.308248
 C         3.280308        -0.888436        -0.280709
 O         4.391308        -1.699285        -0.698630
 C         1.962011        -1.444891         0.158687
 C         2.534825         0.229113        -0.999644
 O         2.459183         1.179857        -2.045506
 H        -0.641820        -0.241689         0.622018
 H        -0.360047         1.242582        -0.379369
 H        -0.492581        -0.449350        -0.961523
 H         1.789765         1.831923         1.078175
 H         2.215503         0.472729         2.267649
 H         4.298839         0.901384         0.094016
 H         5.201633        -1.060523        -0.753969
 H         1.393232        -2.133115        -0.518985
 H         1.916825        -1.776524         1.143503
 H         3.433114         1.213525        -2.395886
