19
Iteration:   429
 C        -0.060630         0.346922        -0.291626
 C         1.342097        -0.096668         0.125675
 C         2.200014         0.732118         1.157337
 C         3.395195         0.549064         0.243113
 C         3.333657        -0.932752        -0.330758
 O         4.407054        -1.675048        -0.745803
 C         1.911774        -1.477451         0.209022
 C         2.525381         0.268397        -0.933005
 O         2.395505         1.155588        -1.968906
 H        -0.748226         0.623258         0.509740
 H         0.041787         1.168088        -1.024861
 H        -0.626320        -0.488856        -0.899165
 H         1.934568         1.756125         1.067720
 H         2.197696         0.509939         2.221354
 H         4.458838         1.008086         0.202364
 H         4.983674        -1.691403         0.110763
 H         1.385624        -2.192067        -0.602688
 H         1.856938        -1.836338         1.282685
 H         2.633052         0.805916        -2.890509
