19
Iteration:   441charge 0 multiplicity 1
 C        -0.081474         0.315056        -0.289285
 C         1.362600         0.025266         0.017293
 C         2.171450         0.784919         1.166833
 C         3.433453         0.477221         0.290761
 C         3.248695        -0.919098        -0.329103
 O         4.472774        -1.708172        -0.755017
 C         1.914702        -1.434456         0.218514
 C         2.516148         0.274586        -0.900192
 O         2.398602         1.131695        -1.959791
 H        -0.650746         0.544835         0.568755
 H        -0.085740         1.280999        -0.890669
 H        -0.561165        -0.570313        -0.950943
 H         1.850628         1.750976         1.295209
 H         2.188613         0.157512         2.103036
 H         4.277463         1.190006        -0.001528
 H         5.095039        -1.708455        -0.149380
 H         1.449106        -2.342815        -0.472447
 H         1.974321        -1.903552         1.226941
 H         2.463882         0.573481        -2.691142
