19
Iteration:  4921charge 0 multiplicity 1
 C        -0.219328         0.274574        -0.163742
 C         1.315374         0.080636        -0.051676
 C         2.069376         0.610791         1.247628
 C         3.349695         0.452053         0.414078
 C         3.229040        -0.925236        -0.356242
 O         4.441764        -1.549263        -0.616162
 C         1.847988        -1.479698         0.008429
 C         2.635739         0.371505        -0.917259
 O         2.791869         1.068683        -2.148941
 H        -0.625470        -0.459107         0.652655
 H        -0.376715         1.381390         0.054490
 H        -0.675942         0.112944        -1.223050
 H         1.874293         1.685639         1.302511
 H         1.946111         0.193817         2.264980
 H         4.292346         0.839618         0.758740
 H         4.286918        -2.303322        -1.218777
 H         1.369380        -2.145045        -0.761424
 H         1.743982        -2.178310         0.900716
 H         2.440195         1.977617        -1.970894
