19
Iteration:  2256
 C        -0.071694         0.287367        -0.302627
 C         1.382110        -0.119073         0.026178
 C         2.041192         0.624656         1.297804
 C         3.316545         0.539843         0.390643
 C         3.242047        -0.866949        -0.346036
 O         4.294045        -1.598939        -0.740213
 C         1.972772        -1.585075         0.097869
 C         2.562955         0.360747        -0.917212
 O         2.627727         1.172041        -2.082575
 H        -0.718511        -0.253708         0.445892
 H        -0.232317         1.259297        -0.282546
 H        -0.377565        -0.030635        -1.304449
 H         1.513272         1.618381         1.437121
 H         1.998454         0.060577         2.250075
 H         4.267116         1.025090         0.449683
 H         5.266974        -1.301853        -0.704427
 H         1.646346        -2.160138        -0.767965
 H         1.956901        -2.078360         1.097308
 H         3.306494         1.819763        -1.724420
