19
Iteration:   418charge 0 multiplicity 1
 C        -0.022357         0.338619        -0.295186
 C         1.382939        -0.092833         0.180428
 C         2.192459         0.774884         1.154940
 C         3.367732         0.510790         0.266850
 C         3.202321        -0.925740        -0.334517
 O         4.328373        -1.610656        -0.718723
 C         2.005712        -1.576355         0.232842
 C         2.571922         0.281177        -0.971938
 O         2.411940         1.193368        -2.053866
 H        -0.573844         0.684517         0.586985
 H         0.006089         1.211122        -0.968849
 H        -0.611946        -0.546670        -0.776623
 H         1.942928         1.791931         1.008823
 H         2.218751         0.533869         2.223869
 H         4.382572         0.947099         0.562945
 H         5.037026        -1.890075         0.084013
 H         1.518725        -2.189785        -0.672133
 H         1.880971        -2.261912         1.120127
 H         2.670021         0.703251        -2.912431
