19
Iteration:   955charge 0 multiplicity 1
 C        -0.036450         0.334011        -0.180172
 C         1.387575         0.002124         0.101660
 C         2.076747         0.682743         1.290761
 C         3.337494         0.513239         0.375947
 C         3.221823        -0.854934        -0.227832
 O         4.363078        -1.440262        -0.974282
 C         1.928376        -1.501731         0.212985
 C         2.527896         0.298202        -0.882419
 O         2.669838         0.811366        -2.156448
 H        -0.760034         0.129840         0.562846
 H        -0.221062         1.458186        -0.434347
 H        -0.246359        -0.226226        -1.213930
 H         1.621294         1.769683         1.210222
 H         1.910054         0.298349         2.247192
 H         4.236734         0.967703         0.589057
 H         5.287861        -0.989779        -0.515237
 H         1.604896        -2.140429        -0.669270
 H         1.692148        -1.991952         1.239031
 H         1.766777         1.123244        -2.525644
