19
Iteration:  3044charge 0 multiplicity 1
 C        -0.205451         0.347042        -0.160154
 C         1.235311        -0.029332         0.123039
 C         2.043849         0.659952         1.272655
 C         3.307663         0.482907         0.429887
 C         3.177166        -0.920032        -0.386184
 O         4.453680        -1.343882        -0.817043
 C         1.845301        -1.573297         0.101933
 C         2.634991         0.320369        -0.897649
 O         2.924306         0.878329        -2.121467
 H        -0.855604        -0.164282         0.466809
 H        -0.449766         1.420937        -0.214732
 H        -0.440299         0.079830        -1.176834
 H         1.767225         1.740467         1.259524
 H         2.104731         0.377492         2.461814
 H         4.353327         0.808644         0.520785
 H         4.301908        -1.754822        -1.695885
 H         1.270377        -2.172466        -0.626240
 H         1.730424        -1.989204         1.091005
 H         2.454177         1.676159        -2.176109
