19
Iteration:  3358
 C        -0.123785         0.296994        -0.290827
 C         1.358686         0.023431        -0.060020
 C         2.014456         0.632444         1.253526
 C         3.422045         0.425537         0.411209
 C         3.299973        -0.885086        -0.296365
 O         4.399078        -1.624661        -0.711656
 C         1.957920        -1.447311         0.112793
 C         2.592704         0.392594        -0.882281
 O         2.569207         1.093095        -2.088019
 H        -0.743541        -0.237994         0.411207
 H        -0.269257         1.394688        -0.172009
 H        -0.363111        -0.179632        -1.347910
 H         1.792852         1.712541         1.415652
 H         1.906734         0.119348         2.300569
 H         4.400628         0.846474         0.575411
 H         4.038819        -2.435883        -1.249436
 H         1.598966        -2.149835        -0.611175
 H         1.896137        -1.869211         1.122936
 H         2.724144         2.070828        -1.932740
