19
Iteration:  1067charge 0 multiplicity 1
 C        -0.096465         0.098269        -0.093216
 C         1.362788        -0.035205         0.108667
 C         2.080169         0.783354         1.103519
 C         3.311227         0.489419         0.276714
 C         3.219659        -0.873158        -0.379268
 O         4.425227        -1.567314        -0.676464
 C         1.979636        -1.489637         0.173690
 C         2.512269         0.366477        -0.981260
 O         2.632613         1.192987        -2.096783
 H        -0.530690        -0.523682         0.675659
 H        -0.508718         1.116346         0.126834
 H        -0.457363        -0.274407        -1.105206
 H         1.659791         1.836622         1.003839
 H         2.007045         0.559982         2.143049
 H         4.309983         1.086651         0.413923
 H         4.373749        -2.518185        -0.622741
 H         1.427006        -2.289762        -0.452336
 H         2.224678        -1.746286         1.242904
 H         2.875107         0.708837        -2.865935
