19
Iteration:  2816charge 0 multiplicity 1
 C        -0.170093         0.268474        -0.248643
 C         1.308511        -0.080051         0.029299
 C         2.018527         0.755903         1.213442
 C         3.392129         0.477865         0.441877
 C         3.292833        -0.889080        -0.323562
 O         4.394878        -1.532563        -0.829363
 C         1.878455        -1.477117         0.109938
 C         2.549262         0.300456        -0.819250
 O         2.750115         0.964373        -2.046661
 H        -0.933421        -0.378328         0.232119
 H        -0.257824         1.274412         0.224753
 H        -0.420891         0.287564        -1.397337
 H         1.701479         1.796393         1.290174
 H         1.888040         0.427041         2.224433
 H         4.363891         0.964377         0.606469
 H         4.327119        -1.215194        -1.868954
 H         1.625991        -2.184612        -0.742462
 H         1.763720        -1.989942         1.069661
 H         3.126628         1.849925        -1.762218
