19
Iteration:  4727charge 0 multiplicity 1
 C        -0.139523         0.236793        -0.178497
 C         1.339662        -0.057384        -0.045486
 C         2.119997         0.580967         1.211880
 C         3.437962         0.549108         0.406999
 C         3.225904        -0.866990        -0.333690
 O         4.337374        -1.603887        -0.511043
 C         1.835623        -1.480101        -0.084892
 C         2.646650         0.444412        -0.877348
 O         2.613280         1.139007        -2.083040
 H        -0.811077        -0.439457         0.514993
 H        -0.466822         1.312160         0.044837
 H        -0.370963         0.239080        -1.267557
 H         1.701287         1.687577         1.245244
 H         2.235503         0.033532         2.209717
 H         4.478876         0.953497         0.483367
 H         4.379746        -2.214523        -1.350304
 H         1.611782        -1.913860        -1.102564
 H         1.645497        -2.083627         0.774791
 H         3.522411         1.017330        -2.527132
