19
Iteration:   831
 C        -0.076520         0.234297        -0.271565
 C         1.384212        -0.004743        -0.005719
 C         2.105075         0.746831         1.114704
 C         3.431513         0.534651         0.341475
 C         3.272761        -0.938176        -0.340138
 O         4.371904        -1.651997        -0.762020
 C         1.957019        -1.493947         0.241886
 C         2.607444         0.331375        -0.867157
 O         2.378299         1.069620        -2.019503
 H        -0.719098         0.075752         0.743509
 H        -0.298579         1.251577        -0.540048
 H        -0.464749        -0.347497        -1.095688
 H         1.979628         1.809738         1.255771
 H         1.978194         0.385083         2.160368
 H         4.377417         1.146903         0.620639
 H         5.207008        -1.066885        -0.611666
 H         1.521912        -2.101705        -0.540800
 H         1.825949        -1.859002         1.374113
 H         3.135688         1.121298        -2.730132
