19
Iteration:  2299
 C        -0.172786         0.227299        -0.308772
 C         1.326372         0.020370         0.029399
 C         1.995044         0.660104         1.281552
 C         3.388009         0.385907         0.604605
 C         3.216319        -0.895985        -0.300795
 O         4.382379        -1.474452        -0.922153
 C         1.901756        -1.511809         0.051782
 C         2.621468         0.359728        -0.838429
 O         2.725455         0.976153        -2.085021
 H        -0.704219         0.275027         0.685276
 H        -0.392726         1.155620        -0.829942
 H        -0.638015        -0.551891        -0.936098
 H         1.969296         1.764693         1.314785
 H         1.726856         0.429332         2.257220
 H         4.372946         0.724731         0.809913
 H         5.011219        -0.600125        -1.072049
 H         1.495352        -2.127661        -0.728140
 H         1.918944        -1.944121         1.078992
 H         2.936770         1.917356        -2.006634
