19
Iteration:  4768charge 0 multiplicity 1
 C        -0.147826         0.338438        -0.280861
 C         1.320453        -0.018796         0.003133
 C         2.125392         0.586509         1.191849
 C         3.396734         0.391020         0.465970
 C         3.257607        -0.897039        -0.316018
 O         4.452749        -1.514329        -0.634728
 C         1.808035        -1.481564         0.022978
 C         2.604612         0.404052        -0.894746
 O         2.628652         1.042998        -2.106330
 H        -0.836278        -0.363411         0.204910
 H        -0.379474         1.237378         0.170187
 H        -0.245965         0.325563        -1.322377
 H         1.933225         1.699065         1.327625
 H         1.808374         0.157866         2.229834
 H         4.419154         0.743236         0.700623
 H         4.140997        -2.038033        -1.371452
 H         1.373722        -2.135458        -0.775786
 H         1.710660        -1.825110         1.091846
 H         3.133123         1.896175        -2.009256
