19
Iteration:  4452
 C        -0.148711         0.260112        -0.278133
 C         1.335659         0.000351         0.028593
 C         2.131750         0.682479         1.249233
 C         3.377065         0.482047         0.481744
 C         3.271834        -0.897945        -0.291686
 O         4.472888        -1.582511        -0.666192
 C         1.839075        -1.480807        -0.019159
 C         2.603001         0.333720        -0.916274
 O         2.561744         1.122730        -2.040994
 H        -0.719089         0.290416         0.713511
 H        -0.142896         1.233487        -0.766149
 H        -0.661937        -0.501428        -0.888726
 H         1.659378         1.752983         1.052736
 H         1.929792         0.204631         2.327361
 H         4.407567         0.901437         0.486721
 H         4.401242        -1.646983        -1.593791
 H         1.498512        -2.229046        -0.847424
 H         1.637714        -1.909321         0.990622
 H         3.257426         0.734516        -2.505342
