19
Iteration:   895
 C        -0.124676         0.072825        -0.052569
 C         1.371425         0.062436        -0.004892
 C         2.158425         0.730019         1.213260
 C         3.337679         0.562384         0.311477
 C         3.256678        -0.862666        -0.349181
 O         4.305127        -1.707909        -0.666324
 C         1.908316        -1.371261         0.123532
 C         2.619352         0.377096        -1.008420
 O         2.594215         1.025256        -2.205130
 H        -0.613390        -0.579847         0.761033
 H        -0.425242         1.075605        -0.035256
 H        -0.527818        -0.361348        -0.894014
 H         1.872635         1.760244         1.314115
 H         2.024271         0.180915         2.262263
 H         4.253378         1.237386         0.467429
 H         5.126274        -1.255491        -0.515602
 H         1.594671        -2.067159        -0.650146
 H         1.813883        -1.835053         1.096125
 H         2.896090         1.938677        -1.977373
