19
Iteration:  4890
 C        -0.169894         0.359622        -0.137648
 C         1.303126        -0.054026        -0.024094
 C         2.020928         0.579923         1.238281
 C         3.295358         0.488904         0.375731
 C         3.179026        -0.866427        -0.316040
 O         4.413184        -1.454530        -0.681432
 C         1.862023        -1.583488         0.030463
 C         2.550768         0.382476        -0.923684
 O         2.904415         0.982454        -2.110549
 H        -0.662906         0.136244         0.891114
 H        -0.166974         1.450788        -0.130180
 H        -0.717723        -0.003125        -1.014341
 H         1.731741         1.664688         1.149610
 H         1.962997         0.003650         2.216959
 H         4.235761         0.913955         0.656730
 H         4.429490        -1.933580        -1.532274
 H         1.465121        -2.111973        -0.908728
 H         1.858537        -2.132988         1.055844
 H         3.029139         1.907761        -1.934459
