19
Iteration:  2373charge 0 multiplicity 1
 C        -0.079662         0.305602        -0.186824
 C         1.349607        -0.077266        -0.072272
 C         2.012304         0.576591         1.220205
 C         3.323639         0.372221         0.479318
 C         3.235137        -0.881587        -0.362873
 O         4.440371        -1.460404        -0.700313
 C         1.890325        -1.544749        -0.000434
 C         2.624190         0.463210        -0.864095
 O         2.709370         1.077468        -2.070761
 H        -0.668383        -0.068111         0.620889
 H        -0.185131         1.479159        -0.238148
 H        -0.505807         0.019182        -1.139494
 H         1.781931         1.671573         1.229724
 H         1.674730         0.289392         2.267199
 H         4.240005         0.868731         0.610875
 H         4.352897        -2.381248        -1.210696
 H         1.584396        -2.227096        -0.763219
 H         1.812475        -1.880236         1.039407
 H         1.998465         1.816875        -1.940841
