19
Iteration:   939
 C        -0.098439         0.278173        -0.184801
 C         1.320119        -0.090525         0.161681
 C         2.085118         0.783294         1.207903
 C         3.381519         0.560257         0.481163
 C         3.231910        -0.851071        -0.352784
 O         4.295444        -1.479711        -0.866457
 C         1.930754        -1.541102         0.144235
 C         2.559083         0.367151        -0.874255
 O         2.716653         0.844976        -2.203872
 H        -0.720747        -0.131933         0.684789
 H        -0.077595         1.319523        -0.144575
 H        -0.482404        -0.121265        -1.040803
 H         1.907131         1.831984         1.224408
 H         2.166839         0.297686         2.282572
 H         4.455378         0.983288         0.438734
 H         5.134982        -0.942103        -0.571606
 H         1.383345        -2.118772        -0.570267
 H         2.045120        -2.145214         1.009834
 H         1.808689         1.130550        -2.497557
