19
Iteration:  3064
 C        -0.123206         0.378617        -0.159741
 C         1.287228        -0.034846        -0.045974
 C         1.952653         0.598091         1.167150
 C         3.318341         0.374031         0.474342
 C         3.215810        -0.863604        -0.342192
 O         4.453461        -1.393218        -0.798027
 C         1.941696        -1.494350         0.173035
 C         2.534083         0.336224        -0.912163
 O         2.834136         0.911721        -2.094055
 H        -0.511662         0.068973         0.913754
 H        -0.104107         1.533985        -0.257402
 H        -0.749801         0.147157        -0.981994
 H         1.834597         1.684334         1.295837
 H         1.724401         0.000002         2.043099
 H         4.277036         0.833474         0.620270
 H         4.201455        -1.848985        -1.522869
 H         1.521850        -2.217043        -0.529318
 H         1.898772        -1.858132         1.239229
 H         2.532791         1.853956        -2.109432
