19
Iteration:  2331charge 0 multiplicity 1
 C        -0.102058         0.174233        -0.292753
 C         1.331077        -0.014108         0.091046
 C         2.052852         0.519379         1.371845
 C         3.375456         0.623003         0.516089
 C         3.175310        -0.827019        -0.346601
 O         4.323843        -1.557184        -0.771632
 C         1.879644        -1.454802        -0.053876
 C         2.593588         0.456784        -0.809820
 O         2.834433         0.990720        -2.109312
 H        -0.735489         0.306861         0.658034
 H        -0.253779         1.219849        -0.906576
 H        -0.531622        -0.706357        -0.832235
 H         1.800981         1.582076         1.499095
 H         2.017893        -0.116855         2.194696
 H         4.380501         0.900379         0.528014
 H         4.514575        -1.302333        -1.599890
 H         1.506801        -1.987111        -0.895911
 H         1.771152        -2.056174         0.874883
 H         2.070962         1.521820        -2.433215
