19
Iteration:  4760charge 0 multiplicity 1
 C        -0.120097         0.322915        -0.223731
 C         1.357736         0.003905        -0.018507
 C         2.080240         0.614973         1.276870
 C         3.401054         0.374161         0.485770
 C         3.206132        -0.900656        -0.349541
 O         4.452459        -1.549961        -0.605116
 C         1.851827        -1.455866        -0.007068
 C         2.588176         0.394036        -0.892527
 O         2.612731         1.072439        -2.148645
 H        -0.789026        -0.545837         0.074934
 H        -0.459506         1.313368         0.157736
 H        -0.391755         0.279087        -1.288341
 H         1.924008         1.798259         1.314500
 H         1.822163         0.121625         2.297036
 H         4.398821         0.832018         0.453238
 H         4.638029        -2.229337        -1.301223
 H         1.295699        -1.962247        -0.803659
 H         1.552629        -1.999657         0.860047
 H         3.323075         1.820672        -2.257371
