19
Iteration:  1147charge 0 multiplicity 1
 C        -0.074534         0.293819        -0.234588
 C         1.360216        -0.077626         0.111661
 C         2.061622         0.740781         1.276449
 C         3.300799         0.632730         0.417675
 C         3.273511        -0.847861        -0.328835
 O         4.402684        -1.416859        -0.851746
 C         2.013235        -1.539030         0.195089
 C         2.567078         0.339886        -0.858462
 O         2.515113         0.718016        -2.158885
 H        -0.896204         0.092631         0.581710
 H        -0.133010         1.329281        -0.507130
 H        -0.421698        -0.226895        -1.080820
 H         1.872249         1.751886         1.362595
 H         1.922100         0.161120         2.210626
 H         4.241009         1.011096         0.619204
 H         4.925585        -0.611037        -1.382119
 H         1.576869        -2.162057        -0.642599
 H         1.968286        -2.158429         1.138412
 H         2.967778         1.498569        -2.382471
