19
Iteration:   814charge 0 multiplicity 1
 C        -0.049609         0.262954        -0.310746
 C         1.401348        -0.046816         0.117295
 C         2.154551         0.764959         1.276902
 C         3.392409         0.509340         0.451261
 C         3.271253        -0.826555        -0.344195
 O         4.343576        -1.613548        -0.798106
 C         1.946500        -1.476247         0.169559
 C         2.595377         0.366212        -0.904320
 O         2.348917         0.996389        -2.126456
 H        -0.698545         0.270784         0.479673
 H        -0.094507         1.323280        -0.724420
 H        -0.296341        -0.405592        -1.216901
 H         1.644366         1.780588         1.139707
 H         1.990055         0.393279         2.319771
 H         4.419674         0.768169         0.591979
 H         5.162546        -1.381757        -0.416202
 H         1.570453        -2.311668        -0.484735
 H         2.248611        -1.958518         1.052377
 H         3.151765         0.778164        -2.721591
