19
Iteration:  2993
 C        -0.114943         0.135281        -0.237831
 C         1.330008         0.072312        -0.015546
 C         1.994896         0.667011         1.260318
 C         3.399179         0.598074         0.563187
 C         3.290350        -0.835737        -0.292635
 O         4.317179        -1.699334        -0.817338
 C         1.922469        -1.358068         0.083200
 C         2.710931         0.461665        -0.844877
 O         2.623690         0.914894        -2.148110
 H        -0.678755        -0.559823         0.542862
 H        -0.388154         1.196004        -0.152526
 H        -0.511285        -0.012811        -1.354929
 H         1.675890         1.643441         1.559544
 H         2.022733        -0.040671         1.987218
 H         4.417759         0.846995         1.043307
 H         4.537127        -1.376496        -1.667242
 H         1.345484        -1.888718        -0.732426
 H         1.738336        -1.869748         1.048494
 H         3.128628         1.749256        -2.321288
