19
Iteration:  1052
 C        -0.151074         0.101643        -0.080114
 C         1.330390        -0.035186         0.011935
 C         2.095939         0.771382         1.158111
 C         3.402932         0.495599         0.323302
 C         3.290884        -0.869403        -0.387320
 O         4.439488        -1.543912        -0.677771
 C         1.973476        -1.450489         0.221168
 C         2.528372         0.255904        -1.032357
 O         2.531080         1.202101        -2.097659
 H        -0.760139        -0.397255         0.660360
 H        -0.451215         1.150764        -0.076418
 H        -0.487639        -0.213918        -1.115246
 H         2.040415         1.924301         1.021724
 H         1.923836         0.365874         2.200566
 H         4.297227         0.947162         0.138721
 H         4.154485        -2.399574        -0.396566
 H         1.560970        -2.130108        -0.499669
 H         1.885770        -1.918449         1.204476
 H         3.391064         0.946150        -2.613369
