19
Iteration:  4269
 C        -0.160802         0.326651        -0.147043
 C         1.302132         0.003068         0.046064
 C         2.042455         0.605487         1.190588
 C         3.325112         0.492289         0.451340
 C         3.278218        -0.910718        -0.317694
 O         4.437919        -1.489771        -0.769639
 C         1.834742        -1.460230         0.044323
 C         2.563096         0.430970        -0.866505
 O         2.832962         0.855235        -2.102982
 H        -0.677966        -0.322354         0.674804
 H        -0.442540         1.496873        -0.125337
 H        -0.607562        -0.133347        -1.109185
 H         1.750696         1.723159         1.247382
 H         1.811945         0.267869         2.228106
 H         4.280619         0.906618         0.672628
 H         4.409988        -1.497185        -1.834455
 H         1.284215        -2.013659        -0.752244
 H         1.738012        -1.951372         1.032973
 H         2.648003         1.846366        -2.187882
