19
Iteration:   640charge 0 multiplicity 1
 C        -0.081600         0.352330        -0.274662
 C         1.343180        -0.007967         0.009866
 C         2.162100         0.766695         1.162641
 C         3.406355         0.522362         0.285803
 C         3.300640        -0.880210        -0.232044
 O         4.394577        -1.572975        -0.799104
 C         1.933440        -1.528739         0.229224
 C         2.536159         0.229257        -0.926375
 O         2.486532         1.041957        -1.967849
 H        -0.691344         0.282443         0.602947
 H        -0.110448         1.353637        -0.792792
 H        -0.409370        -0.464993        -0.988672
 H         1.821773         1.757569         1.224883
 H         2.049313         0.367456         2.189131
 H         4.345011         1.109587         0.041096
 H         4.958080        -2.070726        -0.188057
 H         1.642931        -2.144769        -0.711318
 H         1.935714        -1.929429         1.221849
 H         1.891747         0.821638        -2.682423
