19
Iteration:  2414charge 0 multiplicity 1
 C        -0.119688         0.237725        -0.367332
 C         1.290620        -0.041227         0.083420
 C         2.170025         0.602174         1.269207
 C         3.350338         0.458591         0.388271
 C         3.274740        -0.907970        -0.318751
 O         4.438907        -1.529096        -0.642933
 C         1.831634        -1.492641         0.006778
 C         2.524631         0.397978        -0.847182
 O         2.630097         1.102255        -2.032838
 H        -0.779040        -0.505283         0.068206
 H        -0.407253         1.176557        -0.058146
 H        -0.220509         0.221974        -1.451586
 H         1.856444         1.610012         1.510335
 H         2.309846         0.154024         2.319778
 H         4.245744         1.072231         0.221511
 H         4.314505        -1.561531        -1.583195
 H         1.391223        -2.059343        -0.881416
 H         1.765158        -2.065010         0.970901
 H         3.287109         1.757590        -2.169980
