19
Iteration:  4206
 C        -0.162524         0.310591        -0.369061
 C         1.368993        -0.009727         0.085928
 C         2.209750         0.595944         1.277070
 C         3.403996         0.508911         0.335333
 C         3.239573        -0.904495        -0.326677
 O         4.418659        -1.579772        -0.586460
 C         1.874859        -1.481315         0.003943
 C         2.560510         0.344462        -0.900285
 O         2.583497         1.116206        -2.085515
 H        -0.801283         0.315297         0.556581
 H        -0.377238         1.086776        -1.008048
 H        -0.384929        -0.525550        -0.973599
 H         1.791891         1.619117         1.702105
 H         1.970751         0.087414         2.318107
 H         4.406012         0.894229         0.393261
 H         4.162407        -2.442557        -1.177254
 H         1.415345        -2.045439        -0.824592
 H         1.832755        -1.995773         0.994414
 H         2.748854         2.082994        -1.805984
