19
Iteration:  2689
 C        -0.182949         0.316686        -0.250860
 C         1.333642        -0.002579         0.005433
 C         2.083318         0.491318         1.280606
 C         3.369173         0.436875         0.472966
 C         3.270744        -0.800108        -0.373910
 O         4.458105        -1.547167        -0.615314
 C         1.831533        -1.423936         0.063023
 C         2.623043         0.408269        -0.916674
 O         2.610427         1.038210        -2.155272
 H        -0.653907        -0.007101         0.768489
 H        -0.510261         1.373565        -0.557607
 H        -0.562787        -0.353897        -1.011336
 H         1.895403         1.535307         1.430461
 H         2.090145        -0.164724         2.151998
 H         4.418147         0.777486         0.615070
 H         4.466829        -1.665079        -1.675700
 H         1.499437        -2.180424        -0.648498
 H         1.788391        -1.880430         1.055120
 H         3.265403         1.621688        -2.465066
