19
Iteration:  3551
 C        -0.072945         0.270871        -0.249013
 C         1.354111         0.007216         0.012753
 C         2.172614         0.647737         1.334667
 C         3.329492         0.495235         0.319854
 C         3.230416        -0.878621        -0.374500
 O         4.420836        -1.658964        -0.497455
 C         1.912003        -1.437046        -0.105483
 C         2.515978         0.363470        -0.915849
 O         2.549139         1.101706        -2.104120
 H        -0.717669        -0.149053         0.569280
 H        -0.382991         1.301531        -0.161589
 H        -0.246494        -0.024010        -1.193084
 H         2.090114         1.765417         1.462434
 H         2.461231         0.069745         2.225538
 H         4.336533         0.832686         0.387047
 H         4.239312        -2.280084        -1.111532
 H         1.539070        -1.921301        -1.023277
 H         1.696745        -2.177206         0.685259
 H         2.896897         1.900883        -1.783735
