19
Iteration:  2090charge 0 multiplicity 1
 C        -0.112968         0.335857        -0.206110
 C         1.363119        -0.011228         0.001213
 C         1.987078         0.511561         1.244774
 C         3.338154         0.497169         0.506200
 C         3.306634        -0.828256        -0.255105
 O         4.382147        -1.468377        -0.852454
 C         1.934128        -1.425970         0.001681
 C         2.663226         0.455075        -0.815772
 O         2.616152         0.979257        -2.081598
 H        -0.592432         0.054269         0.784418
 H        -0.353595         1.322163        -0.517436
 H        -0.565022        -0.330077        -0.958919
 H         1.645170         1.579857         1.450753
 H         1.790981        -0.016550         2.193733
 H         4.373120         0.711036         0.976334
 H         3.972636        -2.255292        -1.254314
 H         1.641563        -1.980229        -0.889834
 H         1.919728        -2.186121         0.839638
 H         3.181739         0.559287        -2.705824
