19
Iteration:  2112
 C        -0.133145         0.213542        -0.247662
 C         1.336859         0.035751         0.052517
 C         2.057935         0.689665         1.303102
 C         3.405900         0.472950         0.626815
 C         3.289215        -0.855954        -0.331142
 O         4.353439        -1.443905        -0.978900
 C         1.841991        -1.455182        -0.081886
 C         2.627486         0.400891        -0.748785
 O         2.650217         0.945697        -2.069353
 H        -0.668588         0.176803         0.768776
 H        -0.318581         1.126860        -0.742439
 H        -0.558185        -0.572231        -0.894311
 H         1.703247         1.759023         1.489667
 H         1.759920         0.274794         2.291935
 H         4.447711         1.017867         0.855286
 H         4.387875        -2.421464        -0.543207
 H         1.611042        -2.011970        -0.987765
 H         1.605045        -2.202913         0.783144
 H         3.592472         0.843642        -2.434638
