19
Iteration:  2592charge 0 multiplicity 1
 C        -0.140339         0.256064        -0.333199
 C         1.380279        -0.037435         0.108302
 C         2.124795         0.629377         1.229154
 C         3.324058         0.479128         0.363870
 C         3.142393        -0.907541        -0.367175
 O         4.425170        -1.503056        -0.670637
 C         1.883512        -1.514512         0.104757
 C         2.556490         0.410116        -0.832899
 O         2.730332         1.138187        -2.036154
 H        -0.916639        -0.400596         0.154719
 H        -0.483214         1.335581        -0.034574
 H        -0.187436         0.135335        -1.403134
 H         1.987056         1.681186         1.194360
 H         2.157180         0.089106         2.182322
 H         4.426277         0.697294         0.602773
 H         4.268749        -1.689811        -1.639367
 H         1.487766        -2.183870        -0.661173
 H         1.861972        -2.117862         1.073998
 H         2.397575         0.549460        -2.727026
