19
Iteration:  3068
 C        -0.104718         0.384554        -0.144709
 C         1.272325        -0.059007        -0.056672
 C         1.948355         0.574328         1.141170
 C         3.321403         0.391803         0.466118
 C         3.230139        -0.832807        -0.329740
 O         4.447166        -1.413343        -0.776619
 C         1.959838        -1.487845         0.172186
 C         2.563566         0.354693        -0.917030
 O         2.801043         0.917750        -2.094071
 H        -0.488537         0.164471         0.761441
 H        -0.085513         1.439103        -0.298207
 H        -0.811558         0.080971        -0.956292
 H         1.776968         1.647663         1.298958
 H         1.739344         0.026638         2.272043
 H         4.384436         0.727845         0.655740
 H         4.080120        -1.923505        -1.636400
 H         1.518202        -2.192590        -0.566513
 H         1.783641        -1.812373         1.172169
 H         2.587232         1.887235        -2.055644
