19
Iteration:   105
 C        -0.135511         0.252718        -0.145302
 C         1.337770         0.024393         0.041129
 C         2.128492         0.727721         1.159076
 C         3.354405         0.529659         0.367746
 C         3.251308        -0.866757        -0.259640
 O         4.309540        -1.505184        -0.882244
 C         1.874739        -1.437503         0.256669
 C         2.593357         0.310037        -0.941667
 O         2.752421         0.894592        -2.158992
 H        -0.683289        -0.526212         0.473452
 H        -0.421640         1.249689         0.240523
 H        -0.493635         0.175777        -1.256614
 H         1.985162         1.892266         1.288710
 H         2.006518         0.195532         2.179548
 H         4.247446         1.082333         0.445873
 H         5.072335        -1.545341        -0.102957
 H         1.437331        -2.205040        -0.383919
 H         1.865403        -1.710333         1.344193
 H         1.879204         0.705643        -2.622330
