19
Iteration:  2744charge 0 multiplicity 1
 C        -0.160553         0.303493        -0.313098
 C         1.331137        -0.007619         0.031484
 C         2.088365         0.709222         1.200964
 C         3.395533         0.424248         0.503391
 C         3.254539        -0.928663        -0.307853
 O         4.459550        -1.448271        -0.745375
 C         1.879902        -1.527884         0.045385
 C         2.578217         0.301834        -0.878315
 O         2.671197         1.010276        -2.025194
 H        -0.878585         0.117373         0.564536
 H        -0.229766         1.432807        -0.454577
 H        -0.582496        -0.230842        -1.164557
 H         1.930599         1.806986         1.389848
 H         1.963573         0.236203         2.219230
 H         4.400679         0.723654         0.493986
 H         4.250246        -1.986467        -1.642818
 H         1.470355        -2.085300        -0.790342
 H         1.819886        -2.083442         0.996123
 H         2.104366         1.808981        -1.965168
