19
Iteration:  4802
 C        -0.001587         0.329016        -0.385529
 C         1.330903        -0.038057         0.129025
 C         2.009667         0.679463         1.348801
 C         3.308618         0.492361         0.461172
 C         3.226549        -0.847809        -0.345509
 O         4.369972        -1.575380        -0.844618
 C         1.863631        -1.521343         0.078672
 C         2.550900         0.336073        -0.796396
 O         2.807138         0.991778        -2.052253
 H        -0.865070        -0.078714         0.190644
 H        -0.034572         1.356423        -0.480675
 H        -0.159806         0.079225        -1.373418
 H         1.755919         1.797536         1.194152
 H         1.867615         0.103166         2.361567
 H         4.198367         1.137201         0.495038
 H         4.104135        -1.555269        -1.725294
 H         1.363060        -2.362567        -0.484289
 H         1.946021        -1.991593         1.105428
 H         2.272173         1.717958        -2.113895
