19
Iteration:  4103
 C        -0.174219         0.182749        -0.208612
 C         1.323266         0.065383         0.067554
 C         2.045513         0.667127         1.355390
 C         3.340819         0.549571         0.554845
 C         3.191404        -0.842521        -0.361207
 O         4.317602        -1.459684        -0.853238
 C         1.814197        -1.409713         0.032575
 C         2.680464         0.454330        -0.825487
 O         2.894207         0.745135        -2.183275
 H        -0.707345        -0.552491         0.309855
 H        -0.356128         1.231527         0.078669
 H        -0.450818        -0.020943        -1.286012
 H         1.566884         1.777622         1.488719
 H         2.059611         0.135854         2.372163
 H         4.429353         0.664473         0.828658
 H         4.470810        -1.378107        -1.742223
 H         1.305284        -2.066208        -0.705028
 H         1.837240        -1.892683         1.025891
 H         2.543356         1.556155        -2.472243
