19
Iteration:   823
 C        -0.074948         0.275166        -0.295752
 C         1.375490        -0.048866         0.068050
 C         2.118675         0.726322         1.169419
 C         3.412985         0.531903         0.434666
 C         3.246725        -0.911089        -0.326801
 O         4.356978        -1.640199        -0.785948
 C         2.001668        -1.485346         0.179852
 C         2.664405         0.377069        -0.879402
 O         2.344161         1.037919        -2.075435
 H        -0.724562         0.049846         0.520031
 H        -0.180510         1.332909        -0.667171
 H        -0.515064        -0.481036        -1.063148
 H         1.890466         1.854541         1.068314
 H         2.163124         0.414087         2.173750
 H         4.412630         1.045412         0.543837
 H         5.081920        -1.126353        -0.489010
 H         1.401864        -2.196669        -0.374271
 H         1.902061        -1.768647         1.279353
 H         3.133632         0.953284        -2.715059
