19
Iteration:  4681
 C        -0.084502         0.265170        -0.386951
 C         1.314701        -0.087981         0.110849
 C         2.055915         0.684687         1.230109
 C         3.339811         0.457817         0.463037
 C         3.160154        -0.919497        -0.392044
 O         4.419478        -1.484369        -0.776879
 C         1.869924        -1.545996         0.104528
 C         2.641316         0.425446        -0.836200
 O         2.769114         1.140154        -1.971263
 H        -0.724427         0.194060         0.602800
 H        -0.210267         1.285649        -0.698359
 H        -0.595249        -0.297544        -1.131762
 H         1.839234         1.829243         1.165522
 H         1.765651         0.109666         2.186137
 H         4.324154         0.868837         0.608330
 H         4.186823        -2.341494        -1.323820
 H         1.193785        -2.107453        -0.572035
 H         1.937913        -1.921377         1.107776
 H         2.445028         0.572001        -2.789795
