19
Iteration:  2640charge 0 multiplicity 1
 C        -0.126837         0.233354        -0.299295
 C         1.382316        -0.081946         0.086585
 C         2.031564         0.745777         1.199946
 C         3.433286         0.520874         0.503578
 C         3.213738        -0.878123        -0.325659
 O         4.349219        -1.560865        -0.811206
 C         1.938275        -1.529573         0.040303
 C         2.546807         0.419399        -0.785180
 O         2.644558         1.065370        -2.017717
 H        -0.859976        -0.289902         0.185862
 H        -0.299938         1.254921        -0.109513
 H        -0.237288         0.101132        -1.400082
 H         1.785576         1.866004         1.003224
 H         1.966202         0.322783         2.259535
 H         4.330664         1.029970         0.685794
 H         4.130716        -2.243553        -1.340342
 H         1.510652        -2.090742        -0.809633
 H         1.903829        -2.208533         0.892660
 H         3.572872         1.062042        -2.443186
