19
Iteration:  1772charge 0 multiplicity 1
 C        -0.120422         0.088758        -0.245062
 C         1.310759         0.067639         0.097215
 C         2.152044         0.612942         1.334951
 C         3.337339         0.501801         0.448844
 C         3.164677        -0.817778        -0.363046
 O         4.300928        -1.602506        -0.761073
 C         1.883914        -1.410037        -0.037567
 C         2.574567         0.473132        -0.856613
 O         2.778584         0.986095        -2.162769
 H        -0.657643        -0.386190         0.668551
 H        -0.630693         1.043383        -0.446284
 H        -0.252227        -0.523041        -1.103384
 H         1.955374         1.681374         1.599530
 H         2.071413        -0.095948         2.190739
 H         4.452500         0.956250         0.668838
 H         5.012466        -0.987804        -0.638105
 H         1.520878        -2.040943        -0.861799
 H         1.751818        -1.931473         0.981630
 H         2.603994         1.974810        -2.133526
