19
Iteration:  1910charge 0 multiplicity 1
 C        -0.132260         0.349254        -0.171943
 C         1.366613        -0.096359         0.004261
 C         1.993389         0.601243         1.191632
 C         3.321074         0.582426         0.534354
 C         3.300943        -0.871062        -0.236677
 O         4.440352        -1.539539        -0.733042
 C         1.962123        -1.530036        -0.116190
 C         2.671676         0.381728        -0.806051
 O         2.521337         0.983771        -2.047406
 H        -0.721838         0.297666         0.671928
 H        -0.083791         1.483782        -0.515062
 H        -0.614409        -0.109577        -1.046364
 H         1.555291         1.683517         1.134651
 H         1.856629         0.138195         2.241626
 H         4.388629         1.027158         0.582430
 H         4.343571        -1.237532        -1.745607
 H         1.708863        -2.127967        -1.084394
 H         1.791849        -2.258572         0.744063
 H         3.320334         1.013949        -2.579468
