19
Iteration:  2114charge 0 multiplicity 1
 C        -0.117121         0.221283        -0.252751
 C         1.334383         0.025624         0.081286
 C         2.058237         0.695087         1.313461
 C         3.407967         0.474097         0.606781
 C         3.292473        -0.865151        -0.339301
 O         4.341149        -1.441637        -0.977359
 C         1.821786        -1.453425        -0.074389
 C         2.609949         0.394842        -0.766567
 O         2.666420         0.948394        -2.059439
 H        -0.685941         0.137032         0.810930
 H        -0.347485         1.059875        -0.815351
 H        -0.527323        -0.599745        -0.934999
 H         1.710423         1.756103         1.445019
 H         1.738296         0.292656         2.332969
 H         4.444030         0.939619         0.824795
 H         4.434560        -2.243089        -0.502786
 H         1.645547        -1.973700        -1.012950
 H         1.679980        -2.226908         0.759154
 H         3.629016         0.880626        -2.449266
