19
Iteration:  4680charge 0 multiplicity 1
 C        -0.085030         0.264142        -0.390891
 C         1.312475        -0.090790         0.106648
 C         2.061589         0.689362         1.223160
 C         3.340769         0.457024         0.463123
 C         3.163976        -0.916217        -0.384476
 O         4.413602        -1.479020        -0.780682
 C         1.865769        -1.556800         0.105531
 C         2.631184         0.425511        -0.831991
 O         2.774806         1.139438        -1.969317
 H        -0.691111         0.230799         0.570365
 H        -0.205584         1.261419        -0.690712
 H        -0.571349        -0.310364        -1.126748
 H         1.873314         1.826846         1.179855
 H         1.769025         0.112881         2.218346
 H         4.323382         0.857363         0.607242
 H         4.183590        -2.318622        -1.315399
 H         1.195418        -2.090607        -0.572216
 H         1.955246        -1.937659         1.118250
 H         2.412121         0.574353        -2.778219
