19
Iteration:  1056
 C        -0.120779         0.134077        -0.071573
 C         1.328454        -0.076993         0.040944
 C         2.068957         0.778431         1.162387
 C         3.385466         0.482982         0.313147
 C         3.268376        -0.859823        -0.396213
 O         4.443375        -1.537098        -0.676789
 C         1.972716        -1.445334         0.212089
 C         2.516583         0.276362        -1.042960
 O         2.563715         1.206270        -2.099344
 H        -0.610720        -0.558780         0.614603
 H        -0.532985         1.179560        -0.016699
 H        -0.385840        -0.326832        -1.084623
 H         2.088310         1.892979         1.015678
 H         1.823890         0.447884         2.140145
 H         4.413684         1.051743         0.112234
 H         4.101866        -2.546703        -0.368141
 H         1.476826        -2.259132        -0.472698
 H         1.958477        -1.934329         1.240698
 H         3.251020         0.912885        -2.682351
