19
Iteration:  3510
 C        -0.139194         0.307857        -0.296448
 C         1.343502        -0.001287        -0.016391
 C         2.086276         0.673723         1.251640
 C         3.333755         0.409258         0.465481
 C         3.258657        -0.912890        -0.321154
 O         4.375175        -1.506355        -0.801636
 C         1.931694        -1.492190         0.166252
 C         2.595085         0.334935        -0.888469
 O         2.678034         1.036130        -2.060904
 H        -0.529600         0.046558         0.654325
 H        -0.223167         1.374235        -0.459146
 H        -0.738013        -0.232089        -1.126913
 H         1.780966         1.781451         1.083073
 H         1.786621         0.125442         2.163277
 H         4.346762         0.691728         0.748558
 H         4.085731        -1.945673        -1.732945
 H         1.390087        -2.183345        -0.458762
 H         1.923048        -1.843945         1.256551
 H         3.149189         1.903660        -1.962662
