19
Iteration:  1859charge 0 multiplicity 1
 C        -0.116557         0.217674        -0.397263
 C         1.361209        -0.040919         0.087255
 C         2.178613         0.602551         1.315035
 C         3.382542         0.422401         0.451208
 C         3.150852        -0.889777        -0.402824
 O         4.442477        -1.386578        -0.700205
 C         1.840241        -1.499384         0.138198
 C         2.571581         0.401509        -0.881416
 O         2.580615         1.080589        -2.123118
 H        -0.826945        -0.369914         0.275002
 H        -0.390815         1.300748        -0.338893
 H        -0.320694        -0.004963        -1.421297
 H         1.979975         1.635121         1.608435
 H         2.176119         0.075086         2.217719
 H         4.524278         0.582054         0.691631
 H         4.256932        -2.240181        -1.135292
 H         1.465149        -2.094648        -0.620980
 H         1.736751        -2.121820         0.978908
 H         3.340954         1.604920        -2.108032
