19
Iteration:  4114
 C        -0.113537         0.176406        -0.253587
 C         1.322187         0.067664         0.080290
 C         2.046675         0.662256         1.253416
 C         3.382811         0.514386         0.500020
 C         3.149280        -0.826589        -0.321396
 O         4.307155        -1.508054        -0.845145
 C         1.863040        -1.424255         0.118080
 C         2.597687         0.448034        -0.829050
 O         2.888872         0.789390        -2.153537
 H        -0.687979        -0.450792         0.358336
 H        -0.660846         1.145039         0.004954
 H        -0.295184         0.116155        -1.360907
 H         1.857641         1.772517         1.649853
 H         1.916777        -0.056355         2.153902
 H         4.382943         0.894019         0.885768
 H         4.353647        -1.000425        -1.739476
 H         1.362131        -2.020169        -0.677476
 H         1.849269        -1.975029         1.078324
 H         2.552224         1.679725        -2.253561
