19
Iteration:  4297
 C        -0.162443         0.220061        -0.264964
 C         1.304724        -0.015862         0.141793
 C         2.147382         0.699759         1.315287
 C         3.310306         0.556058         0.456983
 C         3.180982        -0.856707        -0.264991
 O         4.217529        -1.478688        -0.834671
 C         1.910459        -1.502808         0.061652
 C         2.584236         0.384018        -0.875606
 O         2.892845         0.832940        -2.181757
 H        -0.675261        -0.498392         0.248589
 H        -0.528387         1.134092        -0.018273
 H        -0.265440         0.111711        -1.322497
 H         1.852573         1.675062         1.571014
 H         2.078808         0.352790         2.358160
 H         4.336175         0.812434         0.776434
 H         4.668067        -0.793443        -1.511803
 H         1.310449        -1.904132        -0.749113
 H         1.856900        -2.155138         0.936071
 H         3.028626         1.801676        -2.173851
