19
Iteration:  2470
 C        -0.074433         0.200855        -0.338523
 C         1.321695         0.047855         0.016465
 C         2.007290         0.693678         1.237992
 C         3.395268         0.381821         0.580701
 C         3.237478        -0.873696        -0.322433
 O         4.421271        -1.473995        -0.849032
 C         1.885243        -1.483419         0.121696
 C         2.594440         0.377428        -0.806210
 O         2.628793         1.023915        -2.055171
 H        -0.728904        -0.278313         0.452811
 H        -0.393256         1.230442        -0.391643
 H        -0.212056        -0.222145        -1.325559
 H         1.857095         1.771337         1.134962
 H         1.781966         0.218093         2.294259
 H         4.372759         0.607850         0.806594
 H         4.266996        -1.630643        -1.891509
 H         1.420516        -2.147967        -0.671528
 H         1.669850        -1.963617         1.143426
 H         3.496505         1.513940        -2.259649
