19
Iteration:  3292charge 0 multiplicity 1
 C        -0.156261         0.273226        -0.290939
 C         1.312427        -0.019895         0.050551
 C         2.051731         0.642481         1.178244
 C         3.353956         0.409417         0.440524
 C         3.212361        -0.906692        -0.272698
 O         4.380140        -1.562369        -0.841260
 C         1.901492        -1.463681         0.228898
 C         2.606683         0.342814        -0.874483
 O         2.721619         1.061671        -2.118896
 H        -0.849974         0.282663         0.491416
 H        -0.247631         1.319648        -0.638150
 H        -0.501614        -0.392858        -1.104772
 H         1.881850         1.760124         1.070137
 H         1.914964         0.041470         2.182075
 H         4.422628         0.567536         0.714666
 H         4.931847        -0.794778        -1.247428
 H         1.561401        -2.280822        -0.365155
 H         1.886971        -1.777690         1.294865
 H         2.718460         1.973760        -1.864729
