19
Iteration:  4438
 C        -0.120445         0.329484        -0.237178
 C         1.331000        -0.078626         0.009688
 C         2.090352         0.658081         1.176322
 C         3.367612         0.512814         0.383977
 C         3.269901        -0.900911        -0.302806
 O         4.410710        -1.580578        -0.586113
 C         1.930750        -1.534076        -0.015267
 C         2.609159         0.390954        -0.867849
 O         2.543987         1.107210        -2.031541
 H        -0.715116         0.471420         0.813406
 H        -0.270429         1.229889        -0.798957
 H        -0.723107        -0.481687        -0.798401
 H         1.858924         1.688049         1.359450
 H         2.073455         0.302943         2.134717
 H         4.329823         0.951273         0.631693
 H         4.429649        -1.904039        -1.564257
 H         1.603760        -1.900457        -0.971937
 H         1.757823        -2.368834         0.695730
 H         3.373644         1.084475        -2.672923
