19
Iteration:  3742
 C        -0.159505         0.302591        -0.249082
 C         1.291517         0.034328        -0.016458
 C         2.120459         0.594714         1.304032
 C         3.420962         0.400392         0.384290
 C         3.233292        -0.899011        -0.433888
 O         4.454219        -1.532810        -0.555480
 C         1.907743        -1.440366         0.046913
 C         2.586254         0.404750        -0.931131
 O         2.589563         1.062775        -2.141976
 H        -0.709911        -0.212067         0.673357
 H        -0.599197         1.259139        -0.095636
 H        -0.520460         0.010621        -1.311863
 H         1.982877         1.700400         1.419877
 H         2.053039        -0.110356         2.147614
 H         4.477478         0.630246         0.471429
 H         4.326055        -2.291154        -1.042536
 H         1.458241        -2.048251        -0.807264
 H         1.741935        -2.077864         0.965313
 H         3.019043         1.924908        -1.822055
