19
Iteration:  4519
 C        -0.148861         0.227285        -0.335450
 C         1.320795         0.003817         0.101484
 C         2.043821         0.674777         1.283653
 C         3.328642         0.634718         0.437997
 C         3.248747        -0.857060        -0.247158
 O         4.358549        -1.533314        -0.885500
 C         1.938295        -1.415209         0.071162
 C         2.582763         0.305880        -0.843534
 O         2.781611         0.988890        -1.977933
 H        -0.843112        -0.574027         0.129033
 H        -0.574925         1.264398        -0.010577
 H        -0.136331         0.210793        -1.432305
 H         1.620365         1.749973         1.127574
 H         2.119129         0.022307         2.229546
 H         4.302706         1.043038         0.664701
 H         4.063659        -2.522951        -1.022905
 H         1.581528        -1.994118        -0.887937
 H         1.974049        -1.955609         1.044251
 H         2.623185         0.615766        -2.939781
