19
Iteration:  4111
 C        -0.120659         0.153255        -0.244508
 C         1.314038         0.086511         0.075801
 C         2.038866         0.665639         1.289742
 C         3.384473         0.531223         0.518290
 C         3.157162        -0.837982        -0.334499
 O         4.313437        -1.491277        -0.854527
 C         1.832659        -1.423856         0.087684
 C         2.619036         0.456551        -0.820815
 O         2.895381         0.771134        -2.167627
 H        -0.718925        -0.482439         0.399718
 H        -0.576784         1.232713         0.021336
 H        -0.358271         0.161611        -1.336661
 H         1.762409         1.560276         1.642623
 H         1.982336         0.165031         2.172833
 H         4.368886         0.795519         0.907052
 H         4.422498        -1.169581        -1.692456
 H         1.344450        -2.013752        -0.674933
 H         1.946361        -1.916997         1.071322
 H         2.523533         1.635621        -2.323604
