19
Iteration:  2169
 C        -0.151976         0.327870        -0.258863
 C         1.312829        -0.016233         0.011893
 C         1.993318         0.599406         1.245426
 C         3.284109         0.418378         0.431393
 C         3.282487        -0.923355        -0.370168
 O         4.388444        -1.609017        -0.851794
 C         1.987502        -1.476346         0.123582
 C         2.566194         0.357511        -0.866801
 O         2.727052         1.179587        -1.989547
 H        -0.957658         0.012416         0.540223
 H        -0.156357         1.379772        -0.144977
 H        -0.506418         0.068231        -1.304359
 H         1.804879         1.680726         1.391260
 H         1.935490        -0.154412         2.084563
 H         4.184036         0.994825         0.710223
 H         5.114036        -1.119372        -0.692064
 H         1.542885        -2.223404        -0.559331
 H         2.073147        -1.855158         1.192911
 H         2.561236         0.670241        -2.859916
