19
Iteration:  1516charge 0 multiplicity 1
 C        -0.126830         0.291072        -0.232299
 C         1.337184        -0.113747         0.138605
 C         2.031193         0.611342         1.323370
 C         3.320511         0.533763         0.453163
 C         3.236877        -0.825080        -0.352162
 O         4.386466        -1.374317        -0.931200
 C         1.962963        -1.538544         0.110172
 C         2.592830         0.402745        -0.799584
 O         2.680714         0.815527        -2.167980
 H        -0.815327         0.290282         0.527293
 H        -0.109662         1.380740        -0.547725
 H        -0.527688        -0.183336        -1.158031
 H         1.717955         1.719426         1.178070
 H         1.863202         0.296268         2.329140
 H         4.395381         0.945183         0.540165
 H         5.036190        -1.282176        -0.345481
 H         1.626167        -2.251018        -0.682706
 H         1.907529        -2.048487         1.093316
 H         2.312018         1.754750        -2.353156
