19
Iteration:   893
 C        -0.134483         0.072168        -0.045537
 C         1.376703         0.053145        -0.001649
 C         2.153339         0.737045         1.217760
 C         3.343516         0.571890         0.299613
 C         3.268502        -0.884557        -0.365446
 O         4.284565        -1.705847        -0.654787
 C         1.918083        -1.368397         0.119347
 C         2.616715         0.371466        -1.000183
 O         2.589473         1.036594        -2.199446
 H        -0.575802        -0.544311         0.735157
 H        -0.461068         1.105564        -0.029007
 H        -0.491371        -0.396955        -0.948584
 H         1.827908         1.754830         1.279286
 H         2.076488         0.198972         2.226228
 H         4.237286         1.139337         0.489078
 H         5.222262        -1.191483        -0.486008
 H         1.592605        -2.136855        -0.627949
 H         1.831175        -1.809146         1.061284
 H         2.976086         1.976638        -2.033403
