19
Iteration:  2957
 C        -0.083132         0.273647        -0.316934
 C         1.366794        -0.072818         0.067527
 C         2.115259         0.778715         1.188090
 C         3.319287         0.461035         0.318044
 C         3.181500        -0.914725        -0.348989
 O         4.369594        -1.531050        -0.695303
 C         1.962032        -1.570508         0.134506
 C         2.450858         0.283178        -0.902998
 O         2.700128         1.058634        -1.986270
 H        -0.836905         0.104374         0.388769
 H        -0.019251         1.407931        -0.349599
 H        -0.339054        -0.199866        -1.295295
 H         1.847457         1.786981         1.377692
 H         2.227528         0.411579         2.272464
 H         4.322400         0.752907         0.286436
 H         4.547641        -1.261470        -1.554999
 H         1.432121        -2.134560        -0.659814
 H         1.976273        -2.105371         1.079201
 H         2.709224         1.954077        -1.610700
