19
Iteration:  2885
 C        -0.097046         0.214816        -0.217123
 C         1.297817        -0.041551         0.055820
 C         2.127030         0.625509         1.304481
 C         3.329220         0.639781         0.464335
 C         3.275900        -0.851013        -0.238819
 O         4.375194        -1.605628        -0.745749
 C         1.906034        -1.446753        -0.106853
 C         2.556353         0.529064        -0.844131
 O         2.693449         0.908029        -2.157837
 H        -0.725602         0.097930         0.731689
 H        -0.082242         1.229504        -0.433048
 H        -0.430190        -0.384417        -1.065895
 H         1.686514         1.590602         1.819154
 H         2.126019        -0.002084         2.251179
 H         4.296381         1.117158         0.665794
 H         4.054195        -2.342707        -1.159317
 H         1.636242        -1.846619        -1.118215
 H         1.542967        -2.145245         0.669389
 H         2.794735         1.837125        -2.220676
