19
Iteration:  2737charge 0 multiplicity 1
 C        -0.139815         0.314107        -0.267783
 C         1.324409        -0.078856         0.053603
 C         2.090636         0.698492         1.208283
 C         3.312840         0.465524         0.442789
 C         3.269964        -0.962223        -0.310494
 O         4.465067        -1.452048        -0.731122
 C         1.880022        -1.505144         0.031469
 C         2.578599         0.252714        -0.848243
 O         2.683602         1.036327        -2.035034
 H        -0.742119         0.247036         0.622649
 H         0.004548         1.431096        -0.543446
 H        -0.608086        -0.029538        -1.267198
 H         1.897624         1.728011         1.109475
 H         2.106803         0.354671         2.209432
 H         4.311720         0.923875         0.525602
 H         4.278884        -1.875619        -1.607597
 H         1.512933        -2.062190        -0.843845
 H         1.651828        -2.159404         0.924298
 H         2.151823         1.901112        -1.882799
