19
Iteration:  4303
 C        -0.122161         0.221408        -0.274455
 C         1.266229         0.016770         0.115039
 C         2.089068         0.642374         1.301787
 C         3.361598         0.558280         0.448524
 C         3.156699        -0.792351        -0.243129
 O         4.231623        -1.514168        -0.883459
 C         1.908216        -1.472168         0.096452
 C         2.574996         0.374381        -0.805037
 O         2.881864         0.830024        -2.181714
 H        -0.664760        -0.708759         0.286099
 H        -0.755335         1.195362         0.030089
 H        -0.035405         0.044963        -1.392171
 H         1.941875         1.817573         1.347872
 H         2.267758         0.276902         2.347461
 H         4.342851         0.879879         0.808755
 H         4.736808        -0.852741        -1.444810
 H         1.361210        -1.976374        -0.731495
 H         1.822090        -2.133294         0.994185
 H         3.084551         1.837900        -2.180052
