19
Iteration:  1426charge 0 multiplicity 1
 C        -0.128697        -0.032604        -0.163734
 C         1.360371         0.002173         0.020362
 C         2.125854         0.703116         1.152142
 C         3.397721         0.651875         0.315290
 C         3.274675        -0.829742        -0.333339
 O         4.334971        -1.702159        -0.685452
 C         1.955207        -1.410516         0.117877
 C         2.615088         0.393463        -0.934971
 O         2.483379         1.120841        -2.117921
 H        -0.673359        -0.538979         0.520534
 H        -0.452703         1.065290        -0.190128
 H        -0.386886        -0.487946        -1.199822
 H         1.974175         1.770100         1.364649
 H         2.163617         0.154330         2.099868
 H         4.315829         1.075199         0.654045
 H         5.169146        -1.425696        -0.350373
 H         1.500263        -2.042414        -0.692981
 H         1.807884        -1.925158         1.106951
 H         3.012280         1.949696        -1.854853
