19
Iteration:   975charge 0 multiplicity 1
 C        -0.120174         0.337151        -0.315821
 C         1.334651        -0.059346         0.078994
 C         2.147898         0.712287         1.258454
 C         3.438433         0.572637         0.421330
 C         3.262420        -0.884763        -0.314805
 O         4.367504        -1.407613        -0.940719
 C         1.922655        -1.478647         0.202995
 C         2.576914         0.306531        -0.796159
 O         2.581442         0.788799        -2.127939
 H        -0.747349         0.262830         0.563310
 H        -0.233785         1.400488        -0.545185
 H        -0.623985        -0.165877        -1.157432
 H         1.671352         1.665961         1.669630
 H         2.161638         0.028248         2.153337
 H         4.279205         1.166142         0.574852
 H         5.181927        -1.674393        -0.322572
 H         1.410003        -2.117623        -0.497029
 H         1.975878        -1.897273         1.251681
 H         1.728325         1.186449        -2.327761
