19
Iteration:  1191charge 0 multiplicity 1
 C        -0.079279         0.191208        -0.274209
 C         1.352429        -0.051234         0.083743
 C         2.045146         0.771531         1.209322
 C         3.387128         0.585588         0.379901
 C         3.239201        -0.845948        -0.350955
 O         4.414967        -1.520411        -0.688400
 C         2.045847        -1.542685         0.191616
 C         2.592098         0.352932        -0.911991
 O         2.375609         0.953203        -2.135975
 H        -0.618925         0.085372         0.748273
 H        -0.125325         1.211324        -0.515012
 H        -0.580854        -0.321388        -1.024654
 H         1.634442         1.715006         1.361494
 H         2.290183         0.275794         2.176085
 H         4.446314         0.751350         0.513968
 H         5.056192        -1.176634        -1.524790
 H         1.556816        -2.264369        -0.519665
 H         2.249414        -1.974076         1.233786
 H         3.173171         1.263169        -2.490929
