19
Iteration:  1527
 C        -0.090603         0.276759        -0.229676
 C         1.298051        -0.074109         0.095097
 C         2.096812         0.618788         1.296225
 C         3.357968         0.587998         0.540795
 C         3.241477        -0.771144        -0.297349
 O         4.344570        -1.451536        -0.904030
 C         1.952282        -1.551116         0.030883
 C         2.536738         0.458763        -0.862138
 O         2.683913         0.770609        -2.156283
 H        -0.689328         0.104979         0.555578
 H        -0.116047         1.365443        -0.524279
 H        -0.490511        -0.434886        -0.982426
 H         1.663745         1.686458         1.488359
 H         1.956529         0.044143         2.185172
 H         4.313390         1.161390         0.853212
 H         5.124446        -0.930663        -0.655572
 H         1.540610        -2.181855        -0.797965
 H         1.970414        -2.096267         1.001040
 H         2.294003         1.644433        -2.355689
