19
Iteration:  3257charge 0 multiplicity 1
 C        -0.114679         0.332940        -0.124892
 C         1.295658        -0.089937         0.097365
 C         2.001850         0.648898         1.217520
 C         3.290892         0.605388         0.420054
 C         3.255051        -0.834118        -0.282475
 O         4.353410        -1.590582        -0.810177
 C         1.916771        -1.494206        -0.035554
 C         2.544585         0.426967        -0.839837
 O         2.837647         0.837825        -2.102359
 H        -0.742557        -0.032575         0.669068
 H        -0.099525         1.410069        -0.276800
 H        -0.482627        -0.103039        -1.168603
 H         1.618857         1.645658         1.337150
 H         1.869239         0.278558         2.313384
 H         4.305034         1.051700         0.615820
 H         5.016949        -0.873249        -1.227176
 H         1.616942        -2.020325        -0.925279
 H         1.809616        -2.127245         0.844024
 H         2.488903         1.678089        -2.310192
