19
Iteration:  2245charge 0 multiplicity 1
 C        -0.088779         0.215820        -0.302419
 C         1.324544        -0.045847         0.042447
 C         2.071732         0.543980         1.220075
 C         3.348128         0.479632         0.441330
 C         3.247913        -0.819966        -0.385107
 O         4.340938        -1.688896        -0.679362
 C         1.955582        -1.469969         0.085715
 C         2.587720         0.451863        -0.887428
 O         2.581611         1.185321        -2.119532
 H        -0.858376        -0.320493         0.324457
 H        -0.278266         1.180447        -0.162488
 H        -0.271403        -0.061141        -1.344557
 H         1.860431         1.604649         1.533449
 H         2.100991        -0.091565         2.140952
 H         4.351573         0.838346         0.576084
 H         5.295425        -1.186417        -0.561125
 H         1.570241        -2.204822        -0.626581
 H         1.872120        -1.987243         1.075330
 H         2.961191         2.045377        -2.057127
