19
Iteration:  4204charge 0 multiplicity 1
 C        -0.170171         0.311602        -0.368328
 C         1.372158         0.005730         0.082132
 C         2.202653         0.580686         1.265971
 C         3.424149         0.501231         0.333433
 C         3.230190        -0.915340        -0.312317
 O         4.421482        -1.582185        -0.588003
 C         1.876696        -1.488258         0.021556
 C         2.569443         0.356850        -0.904826
 O         2.572936         1.122739        -2.085255
 H        -0.812789         0.276404         0.569725
 H        -0.372451         1.110877        -1.068017
 H        -0.365353        -0.554437        -1.003747
 H         1.792272         1.567071         1.665126
 H         1.993787         0.171743         2.253778
 H         4.390125         0.907915         0.435885
 H         4.115150        -2.342165        -1.195359
 H         1.430988        -2.056070        -0.835461
 H         1.838463        -1.995185         1.016697
 H         2.758507         2.066399        -1.778776
