19
Iteration:  2391charge 0 multiplicity 1
 C        -0.086384         0.289462        -0.274778
 C         1.333379         0.009391         0.046207
 C         2.072200         0.628169         1.173832
 C         3.343520         0.385272         0.513310
 C         3.218199        -0.957006        -0.467098
 O         4.490640        -1.404508        -0.634049
 C         1.845747        -1.531927         0.048350
 C         2.619765         0.338786        -0.900528
 O         2.614389         1.106145        -2.100866
 H        -0.618679        -0.361034         0.456233
 H        -0.315873         1.251292        -0.003831
 H        -0.459527         0.142900        -1.300496
 H         1.771459         1.644782         1.397752
 H         1.838668         0.161782         2.188299
 H         4.428917         0.284742         0.841168
 H         4.388482        -2.180272        -1.340349
 H         1.197172        -2.099721        -0.726483
 H         1.957106        -2.054154         1.027249
 H         2.716183         2.073591        -1.759219
