19
Iteration:  1479
 C        -0.128436         0.192103        -0.243888
 C         1.326818        -0.078359         0.016495
 C         2.052514         0.697143         1.212985
 C         3.397815         0.500138         0.336427
 C         3.264044        -0.906187        -0.304039
 O         4.476626        -1.396580        -0.788956
 C         1.913812        -1.513634         0.193610
 C         2.575825         0.351411        -0.877056
 O         2.552876         1.015802        -2.085113
 H        -0.749402        -0.259369         0.517488
 H        -0.288931         1.255960        -0.316332
 H        -0.434852        -0.359971        -1.129358
 H         1.781551         1.709118         1.121241
 H         2.140824         0.394965         2.308150
 H         4.337956         0.968126         0.359961
 H         4.390356        -2.268659        -0.993285
 H         1.510283        -2.223581        -0.565066
 H         1.835381        -1.943815         1.232475
 H         2.912753         1.940482        -1.872619
