19
Iteration:  3317
 C        -0.073825         0.137166        -0.409200
 C         1.392220         0.031487         0.119119
 C         2.143271         0.770796         1.325095
 C         3.403135         0.540483         0.400550
 C         3.184254        -0.903612        -0.362071
 O         4.318446        -1.656962        -0.730894
 C         1.886897        -1.465942         0.046996
 C         2.569312         0.319731        -0.823444
 O         2.607808         1.086135        -2.023495
 H        -0.779549         0.125727         0.425811
 H        -0.346552         1.104921        -0.837287
 H        -0.283295        -0.551176        -1.099294
 H         1.923602         1.908394         1.245627
 H         1.955904         0.153594         2.219047
 H         4.402140         0.849499         0.257339
 H         4.618381        -1.346872        -1.542438
 H         1.398243        -2.136335        -0.723166
 H         1.867681        -2.029177         1.017027
 H         3.092376         1.917185        -1.753020
