19
Iteration:   813charge 0 multiplicity 1
 C        -0.042362         0.261505        -0.310688
 C         1.402456        -0.043361         0.119984
 C         2.154303         0.765649         1.289533
 C         3.389920         0.507284         0.447296
 C         3.272221        -0.820667        -0.347982
 O         4.338427        -1.610129        -0.800724
 C         1.943234        -1.478782         0.168704
 C         2.582757         0.363502        -0.903015
 O         2.351406         0.991670        -2.130421
 H        -0.702992         0.290674         0.473370
 H        -0.085409         1.320395        -0.727515
 H        -0.285899        -0.405172        -1.234418
 H         1.639625         1.793508         1.172245
 H         1.972703         0.409745         2.297178
 H         4.452687         0.761197         0.612014
 H         5.231267        -1.399424        -0.378816
 H         1.596300        -2.284595        -0.506932
 H         2.273549        -1.986860         1.058788
 H         3.159280         0.762595        -2.737961
