19
Iteration:  3505charge 0 multiplicity 1
 C        -0.133782         0.287830        -0.307582
 C         1.315685         0.009487         0.014809
 C         2.039391         0.683703         1.257445
 C         3.352709         0.375773         0.438860
 C         3.262944        -0.904975        -0.343310
 O         4.382574        -1.490190        -0.838229
 C         1.911204        -1.437358         0.189981
 C         2.582488         0.278677        -0.863326
 O         2.719337         1.012241        -2.053849
 H        -0.546062         0.258229         0.772044
 H        -0.303069         1.385763        -0.423882
 H        -0.469112        -0.240355        -1.169142
 H         1.780893         1.701219         1.113825
 H         1.813078         0.180397         2.202522
 H         4.324567         0.830640         0.660265
 H         4.114931        -1.684873        -1.682030
 H         1.348468        -2.214400        -0.410121
 H         1.949846        -1.954386         1.139974
 H         3.127987         1.891419        -1.878630
