19
Iteration:  2031charge 0 multiplicity 1
 C        -0.109016         0.255715        -0.259081
 C         1.333257        -0.017186        -0.024667
 C         2.122613         0.646615         1.246676
 C         3.355936         0.401821         0.400093
 C         3.240243        -0.929375        -0.367855
 O         4.465434        -1.518678        -0.639808
 C         1.834764        -1.514380         0.071015
 C         2.585636         0.375020        -0.894835
 O         2.670894         1.147882        -2.034595
 H        -0.588537        -0.460058         0.313453
 H        -0.393112         1.292632         0.205580
 H        -0.457272         0.224514        -1.284494
 H         1.914473         1.706980         1.130468
 H         2.009214         0.146380         2.202459
 H         4.321719         0.880886         0.512579
 H         4.512775        -1.532629        -1.665519
 H         1.309019        -2.069788        -0.774312
 H         1.904256        -2.038035         1.057797
 H         1.671886         1.194484        -2.260151
