19
Iteration:  4543charge 0 multiplicity 1
 C        -0.130500         0.197602        -0.242553
 C         1.378149         0.026085         0.014127
 C         2.038513         0.685365         1.231884
 C         3.337248         0.439130         0.502647
 C         3.184541        -0.872935        -0.306397
 O         4.403108        -1.511557        -0.763627
 C         1.889298        -1.517537         0.072763
 C         2.655385         0.480358        -0.847009
 O         2.727454         1.085113        -2.137041
 H        -0.679486        -0.561783         0.242499
 H        -0.381119         1.175178         0.315919
 H        -0.436396         0.360270        -1.276442
 H         1.756428         1.754330         1.025820
 H         1.851571         0.038589         2.233603
 H         4.285156         0.927827         0.611538
 H         4.209650        -2.391581        -0.570315
 H         1.490964        -2.043659        -0.865799
 H         1.763790        -2.023309         1.066586
 H         2.564093         0.373215        -2.782054
