19
Iteration:  2334charge 0 multiplicity 1
 C        -0.125220         0.203562        -0.295746
 C         1.306412        -0.020764         0.082686
 C         2.076522         0.546101         1.392250
 C         3.323568         0.641941         0.494009
 C         3.214241        -0.827295        -0.347559
 O         4.332161        -1.581553        -0.754383
 C         1.898914        -1.463511        -0.072574
 C         2.603457         0.443853        -0.778487
 O         2.836848         1.004176        -2.111211
 H        -0.780226         0.319744         0.640059
 H        -0.209017         1.103590        -0.768184
 H        -0.540255        -0.666867        -0.840300
 H         1.786447         1.584243         1.517447
 H         2.111281        -0.185411         2.187617
 H         4.334798         1.001152         0.487049
 H         4.418238        -1.399375        -1.810189
 H         1.546624        -2.091372        -0.951973
 H         1.718697        -2.138452         0.800812
 H         2.080076         1.455002        -2.402988
