19
Iteration:  3147charge 0 multiplicity 1
 C        -0.028487         0.267709        -0.360738
 C         1.361496        -0.008559         0.009136
 C         2.054996         0.684194         1.233334
 C         3.338641         0.469372         0.420098
 C         3.207089        -0.942575        -0.342896
 O         4.419231        -1.637370        -0.682886
 C         1.960091        -1.497280         0.178273
 C         2.600945         0.338591        -0.927083
 O         2.560009         1.172008        -2.087620
 H        -0.615674         0.008010         0.426429
 H        -0.206762         1.280183        -0.487589
 H        -0.398162        -0.389200        -1.144615
 H         1.692362         1.730850         1.348877
 H         1.839856         0.276220         2.329003
 H         4.354276         0.650787         0.653499
 H         4.198545        -1.897762        -1.593129
 H         1.495957        -2.243899        -0.455679
 H         1.940353        -1.779007         1.225407
 H         2.832168         2.099409        -1.800940
