19
Iteration:  3114
 C        -0.085174         0.186072        -0.331539
 C         1.355694         0.025661         0.110578
 C         2.212813         0.654804         1.306411
 C         3.394776         0.489349         0.371806
 C         3.226048        -0.879832        -0.361793
 O         4.373886        -1.632423        -0.579966
 C         1.856785        -1.350884        -0.068504
 C         2.538821         0.410260        -0.867003
 O         2.548822         1.029690        -2.053012
 H        -0.778452         0.077462         0.438076
 H        -0.283186         0.944538        -1.006538
 H        -0.311424        -0.632890        -1.043009
 H         1.852629         1.721834         1.319268
 H         2.151003         0.091337         2.437553
 H         4.415212         0.737544         0.499247
 H         4.649810        -1.664203        -1.638590
 H         1.495389        -1.859341        -0.963527
 H         1.721127        -1.973789         0.839763
 H         3.058688         1.804713        -1.966218
