19
Iteration:   890charge 0 multiplicity 1
 C        -0.143571         0.076028        -0.043266
 C         1.379671         0.033231         0.009829
 C         2.142111         0.741365         1.216595
 C         3.354318         0.582116         0.287872
 C         3.274293        -0.899623        -0.381469
 O         4.276926        -1.700679        -0.639521
 C         1.935651        -1.371444         0.102897
 C         2.606939         0.364528        -0.985126
 O         2.588156         1.059404        -2.191976
 H        -0.531805        -0.499032         0.757002
 H        -0.544492         1.150986        -0.011115
 H        -0.453771        -0.439250        -1.054036
 H         1.765125         1.800996         1.256024
 H         2.160255         0.250083         2.131502
 H         4.296992         1.013381         0.498984
 H         5.148476        -1.219289        -0.486225
 H         1.564444        -2.181471        -0.587735
 H         1.859718        -1.821251         1.129400
 H         3.028952         1.913814        -2.131132
