19
Iteration:  1663charge 0 multiplicity 1
 C        -0.062138         0.114351        -0.342739
 C         1.399318         0.016836         0.105260
 C         2.136370         0.699304         1.326960
 C         3.413956         0.543939         0.445194
 C         3.210655        -0.823918        -0.354574
 O         4.344587        -1.622244        -0.683440
 C         1.892825        -1.480955         0.009125
 C         2.623240         0.443328        -0.864633
 O         2.538360         1.038316        -2.105382
 H        -0.844573        -0.512696         0.230107
 H        -0.421765         1.032106        -0.545262
 H        -0.069481        -0.479223        -1.198216
 H         1.638854         1.638623         1.556796
 H         2.158154        -0.032525         2.198015
 H         4.560368         0.793203         0.639633
 H         4.464930        -1.374488        -1.555266
 H         1.434566        -1.894993        -0.878596
 H         1.661726        -1.913476         1.002073
 H         2.655193         1.960847        -2.021326
