19
Iteration:   774charge 0 multiplicity 1
 C        -0.099797         0.306721        -0.275780
 C         1.318572        -0.045032         0.050963
 C         2.152325         0.687562         1.316434
 C         3.473714         0.669945         0.376878
 C         3.245463        -0.863676        -0.244206
 O         4.382035        -1.360056        -0.921113
 C         1.866845        -1.463286         0.165880
 C         2.543250         0.304853        -0.867357
 O         2.550840         0.809763        -2.107017
 H        -0.868230        -0.064127         0.541292
 H        -0.144351         1.376501        -0.430906
 H        -0.498334        -0.164772        -1.110316
 H         1.887432         1.660628         1.521054
 H         2.245419         0.081278         2.262916
 H         4.463608         0.889265         0.656313
 H         4.846428        -2.203816        -0.353061
 H         1.536279        -2.172156        -0.648168
 H         1.563834        -1.877653         1.176655
 H         2.770055         0.154970        -2.751173
