19
Iteration:  3253
 C        -0.132123         0.317936        -0.126789
 C         1.262154        -0.108266         0.094631
 C         2.003635         0.643704         1.272701
 C         3.368230         0.626941         0.408969
 C         3.276565        -0.813796        -0.246860
 O         4.350400        -1.579082        -0.801558
 C         1.907752        -1.464232        -0.054011
 C         2.559519         0.416600        -0.867331
 O         2.830628         0.820688        -2.114873
 H        -0.827246        -0.104238         0.739363
 H        -0.226522         1.433301        -0.310488
 H        -0.461150        -0.047895        -1.178005
 H         1.607540         1.678783         1.247102
 H         1.915510         0.145022         2.223911
 H         4.306683         1.029798         0.680320
 H         4.891174        -0.985036        -1.201479
 H         1.522931        -1.970948        -1.003609
 H         1.679898        -2.212659         0.745388
 H         2.488602         1.757457        -2.356415
