19
Iteration:  3705charge 0 multiplicity 1
 C        -0.124518         0.328786        -0.178011
 C         1.368774        -0.052296         0.060302
 C         2.016338         0.672456         1.243457
 C         3.294957         0.549281         0.424344
 C         3.229886        -0.825957        -0.329860
 O         4.368075        -1.510102        -0.791395
 C         1.856870        -1.533455        -0.001662
 C         2.603040         0.347725        -0.866317
 O         2.835940         0.882976        -2.035761
 H        -0.734004        -0.138759         0.700169
 H        -0.029673         1.440518        -0.148177
 H        -0.636323        -0.040165        -1.016466
 H         1.580065         1.567050         1.326033
 H         1.859943         0.273203         2.200501
 H         4.309856         0.964178         0.573597
 H         4.281745        -1.423992        -1.680145
 H         1.523193        -2.024085        -0.903561
 H         1.889152        -2.178242         0.894048
 H         2.493189         1.777282        -2.239146
