19
Iteration:  1328charge 0 multiplicity 1
 C        -0.098223         0.125576        -0.212418
 C         1.397472        -0.010425         0.136465
 C         2.068814         0.724029         1.404598
 C         3.379921         0.676300         0.508069
 C         3.240602        -0.780221        -0.319746
 O         4.300449        -1.412135        -0.929163
 C         1.920962        -1.494809         0.041021
 C         2.594889         0.441907        -0.830118
 O         2.653441         0.631197        -2.191665
 H        -0.728675        -0.075495         0.615336
 H        -0.316930         1.238294        -0.559027
 H        -0.467870        -0.384893        -1.212153
 H         1.637536         1.710905         1.750686
 H         1.931156         0.027262         2.202469
 H         4.284395         1.142684         0.616037
 H         5.196637        -0.748303        -0.828563
 H         1.441534        -1.881374        -0.872923
 H         1.958089        -2.196489         0.861997
 H         2.484250         1.492539        -2.681318
