19
Iteration:  3902
 C        -0.162937         0.293493        -0.078358
 C         1.314849        -0.033613        -0.013851
 C         2.077367         0.659823         1.200595
 C         3.347719         0.470160         0.513102
 C         3.165724        -0.829172        -0.315478
 O         4.349570        -1.450283        -0.690811
 C         1.880411        -1.487045        -0.083973
 C         2.634267         0.470693        -0.860165
 O         2.813313         0.759242        -2.167057
 H        -0.560314        -0.176893         0.692349
 H        -0.301044         1.341385         0.253005
 H        -0.548796         0.234178        -1.078178
 H         1.732935         1.825451         1.193936
 H         1.841882         0.177170         2.243105
 H         4.319305         0.900489         0.820448
 H         4.490458        -1.319196        -1.628044
 H         1.741262        -2.090051        -0.983154
 H         1.681150        -2.116240         0.805401
 H         2.649595         1.766504        -2.239139
