19
Iteration:  2007
 C        -0.109405         0.151106        -0.235909
 C         1.359685        -0.030036        -0.012311
 C         2.025193         0.747724         1.211347
 C         3.420417         0.500923         0.518981
 C         3.326276        -0.883769        -0.328900
 O         4.350664        -1.660825        -0.744907
 C         1.927994        -1.470941         0.037784
 C         2.642678         0.450263        -0.884829
 O         2.630832         1.136200        -2.041246
 H        -0.739030        -0.622168         0.295534
 H        -0.481011         1.178228        -0.012236
 H        -0.161417         0.047882        -1.367742
 H         1.743617         1.766823         1.109831
 H         1.811256         0.095673         2.058558
 H         4.457512         0.898256         0.928164
 H         4.001704        -2.161422        -1.389270
 H         1.509874        -1.960565        -0.901494
 H         2.000370        -2.096224         0.951298
 H         1.785655         1.696930        -2.067429
