19
Iteration:   734
 C        -0.169386         0.217764        -0.034758
 C         1.336220        -0.059095         0.133585
 C         2.062075         0.794886         1.199981
 C         3.311467         0.579019         0.424953
 C         3.250985        -0.773365        -0.360331
 O         4.315862        -1.466709        -0.956202
 C         1.905109        -1.487174         0.138319
 C         2.567143         0.367746        -0.873106
 O         2.827100         0.835807        -2.177797
 H        -0.787199        -0.392774         0.679197
 H        -0.250604         1.270954         0.213164
 H        -0.638228         0.061374        -1.048666
 H         1.656094         1.865134         1.119293
 H         1.888198         0.498619         2.224488
 H         4.382947         0.850098         0.516342
 H         4.708264        -1.718646        -0.202645
 H         1.514001        -2.059145        -0.642520
 H         1.899318        -1.932978         1.167937
 H         2.915789         0.008247        -2.742576
