19
Iteration:  4354
 C        -0.061441         0.239070        -0.277349
 C         1.314976        -0.070695         0.100227
 C         2.035154         0.760712         1.245678
 C         3.394287         0.502454         0.463915
 C         3.213617        -0.887656        -0.306533
 O         4.334679        -1.589747        -0.791040
 C         1.907609        -1.525796         0.119093
 C         2.612135         0.397451        -0.838898
 O         2.732944         1.014769        -2.106332
 H        -0.814039        -0.264713         0.190459
 H        -0.236343         1.321831        -0.231149
 H        -0.107634        -0.085024        -1.324387
 H         1.753526         1.789995         1.036667
 H         1.877930         0.164074         2.192851
 H         4.386050         0.900404         0.631554
 H         4.373671        -1.448520        -1.689509
 H         1.299722        -2.001212        -0.699246
 H         1.803665        -1.997689         1.090183
 H         2.328071         1.856114        -2.209638
