19
Iteration:   225
 C         0.039926         0.403104        -0.353746
 C         1.412730        -0.022065         0.099443
 C         2.132565         0.762614         1.251572
 C         3.395803         0.517909         0.375617
 C         3.238775        -0.943398        -0.317804
 O         4.382725        -1.604334        -0.773464
 C         1.935077        -1.551622         0.218650
 C         2.652114         0.284368        -0.940595
 O         2.264616         1.056247        -2.089515
 H        -0.590730         0.521532         0.462784
 H         0.039908         1.316843        -0.967304
 H        -0.418872        -0.437983        -0.955374
 H         1.775447         1.836477         1.280383
 H         2.111294         0.338176         2.222437
 H         4.489729         0.652426         0.364973
 H         5.041118        -1.780842         0.095738
 H         1.399338        -2.200557        -0.482384
 H         1.885911        -2.017540         1.257670
 H         2.947700         1.158420        -2.775653
