19
Iteration:  3955
 C        -0.129344         0.258550        -0.384382
 C         1.359419        -0.024009         0.021756
 C         2.117555         0.684431         1.263761
 C         3.380437         0.479585         0.413920
 C         3.190377        -0.872642        -0.320748
 O         4.334388        -1.541825        -0.725936
 C         1.957093        -1.472783         0.162657
 C         2.602345         0.373422        -0.885784
 O         2.669935         1.022536        -2.071579
 H        -0.654306        -0.377256         0.452675
 H        -0.397254         1.396933        -0.189716
 H        -0.375275        -0.114435        -1.437562
 H         1.825804         1.713527         1.251024
 H         1.865403         0.012914         2.042998
 H         4.469362         0.633325         0.612182
 H         3.983873        -2.115243        -1.504189
 H         1.425334        -2.196885        -0.452770
 H         1.964396        -1.729617         1.243149
 H         2.828686         1.996775        -1.815379
