19
Iteration:  1302
 C        -0.161763         0.126825        -0.185587
 C         1.329737        -0.036842         0.103902
 C         2.071460         0.702519         1.216454
 C         3.454779         0.579795         0.407634
 C         3.296588        -0.799623        -0.255455
 O         4.328199        -1.372480        -0.921797
 C         1.944523        -1.462342         0.142360
 C         2.530491         0.357601        -0.870175
 O         2.664986         0.798890        -2.138268
 H        -0.843773        -0.310398         0.557338
 H        -0.391325         1.170093        -0.232670
 H        -0.401091        -0.183090        -1.166334
 H         1.821661         1.721111         1.199316
 H         1.841311         0.268867         2.256036
 H         4.496859         1.110632         0.546422
 H         4.980992        -1.741298        -0.161590
 H         1.676114        -2.007382        -0.768984
 H         1.901958        -2.087444         1.098243
 H         2.173909         1.647817        -2.389074
