19
Iteration:  3262charge 0 multiplicity 1
 C        -0.091354         0.334715        -0.159485
 C         1.335305        -0.059202         0.077743
 C         2.002194         0.656029         1.196643
 C         3.228608         0.568734         0.455103
 C         3.227608        -0.846969        -0.333442
 O         4.359710        -1.576327        -0.821273
 C         1.932063        -1.527841         0.008382
 C         2.540312         0.416591        -0.816732
 O         2.845236         0.852074        -2.099589
 H        -0.776164         0.065634         0.694259
 H        -0.043159         1.439884        -0.175995
 H        -0.509126        -0.123528        -0.976989
 H         1.613305         1.727155         1.339250
 H         1.928250         0.352625         2.207359
 H         4.170719         1.054062         0.531811
 H         4.957109        -0.988791        -1.146443
 H         1.657796        -2.109072        -0.910094
 H         1.943624        -2.094305         0.979552
 H         2.421413         1.773521        -2.253563
