19
Iteration:  3631
 C        -0.164946         0.265819        -0.289691
 C         1.301437        -0.046835         0.122288
 C         2.067827         0.686479         1.259135
 C         3.369024         0.510325         0.492717
 C         3.257700        -0.868862        -0.252371
 O         4.319800        -1.443960        -0.918037
 C         1.862935        -1.480151         0.068136
 C         2.575815         0.351973        -0.781613
 O         2.846668         0.870254        -2.107931
 H        -0.911453        -0.189558         0.378309
 H        -0.106713         1.297026        -0.472057
 H        -0.378437        -0.222221        -1.208976
 H         1.791511         1.892472         1.361816
 H         2.051237         0.192737         2.312223
 H         4.373808         0.907707         0.716886
 H         3.908638        -1.530807        -1.737364
 H         1.409884        -1.981208        -0.801953
 H         1.764179        -1.975171         1.073408
 H         2.939201         1.785855        -1.933450
