19
Iteration:  2711
 C        -0.069220         0.379814        -0.180210
 C         1.339683        -0.102016         0.049439
 C         2.008810         0.645112         1.215809
 C         3.296508         0.548977         0.411811
 C         3.228728        -0.874064        -0.380554
 O         4.429478        -1.535185        -0.626184
 C         1.945986        -1.626654         0.003924
 C         2.533771         0.312760        -0.864017
 O         2.656031         1.062315        -2.130243
 H        -0.673142         0.372504         0.821223
 H         0.087227         1.474950        -0.549056
 H        -0.562833        -0.041542        -1.040677
 H         1.649795         1.685463         1.299851
 H         1.989358        -0.064275         2.044339
 H         4.354007         0.864446         0.469153
 H         4.494898        -1.599119        -1.537595
 H         1.532364        -2.266285        -0.777392
 H         1.987450        -2.214169         0.933850
 H         3.095328         1.970769        -1.935018
