19
Iteration:  3289charge 0 multiplicity 1
 C        -0.158731         0.302088        -0.284027
 C         1.330346        -0.030663         0.050227
 C         2.029930         0.648988         1.181667
 C         3.357427         0.420876         0.452000
 C         3.212900        -0.911281        -0.279354
 O         4.372259        -1.545523        -0.845691
 C         1.914852        -1.485559         0.220240
 C         2.603406         0.330067        -0.889144
 O         2.738541         1.046733        -2.130031
 H        -0.885523         0.236845         0.593404
 H        -0.177668         1.381825        -0.555754
 H        -0.576789        -0.476602        -1.134825
 H         1.843032         1.696737         1.220642
 H         1.789039         0.150149         2.176850
 H         4.442816         0.557431         0.701026
 H         4.852587        -0.854635        -1.156251
 H         1.565981        -2.301577        -0.396483
 H         1.969796        -1.715696         1.278663
 H         2.659884         2.031881        -1.846104
