19
Iteration:  1247
 C        -0.150252         0.033082        -0.193025
 C         1.331857        -0.053330         0.050419
 C         2.172908         0.773388         1.147188
 C         3.364467         0.583879         0.254664
 C         3.291528        -0.831683        -0.328972
 O         4.405883        -1.548778        -0.621784
 C         2.017598        -1.504628         0.154845
 C         2.529081         0.347984        -0.976333
 O         2.479466         1.124892        -2.094359
 H        -0.758835        -0.568844         0.535688
 H        -0.503918         1.027050        -0.042597
 H        -0.444633        -0.363913        -1.134492
 H         1.946786         1.779841         1.053600
 H         2.300356         0.536682         2.262712
 H         4.311110         1.271599         0.295687
 H         4.152297        -2.612292        -0.689997
 H         1.701260        -2.329099        -0.506494
 H         2.056416        -1.994042         1.198666
 H         3.118708         1.886497        -2.126920
