19
Iteration:  2776
 C        -0.009950         0.103818        -0.362861
 C         1.361323         0.005231         0.085069
 C         2.113347         0.630392         1.381616
 C         3.352711         0.480346         0.539849
 C         3.166305        -0.773561        -0.338247
 O         4.300451        -1.552602        -0.795821
 C         1.873997        -1.359838         0.075292
 C         2.643712         0.467851        -0.875058
 O         2.685161         0.949011        -2.165916
 H        -0.805634        -0.398570         0.238060
 H        -0.227175         1.143066        -0.332718
 H        -0.160172        -0.283009        -1.312512
 H         1.845086         1.707062         1.776461
 H         2.056626        -0.136175         2.263959
 H         4.330334         0.730830         0.785597
 H         4.141794        -1.884618        -1.633892
 H         1.260351        -1.936661        -0.607606
 H         1.882950        -1.807248         1.068539
 H         2.628075         1.902021        -2.230781
