19
Iteration:   733charge 0 multiplicity 1
 C        -0.172808         0.215858        -0.037750
 C         1.335256        -0.056958         0.129569
 C         2.069713         0.803028         1.196010
 C         3.304001         0.582451         0.421488
 C         3.249387        -0.776421        -0.351229
 O         4.315422        -1.472775        -0.955591
 C         1.900879        -1.487150         0.141674
 C         2.575245         0.372794        -0.880437
 O         2.828001         0.842307        -2.172038
 H        -0.807124        -0.431706         0.688831
 H        -0.262137         1.254396         0.209724
 H        -0.654674         0.058495        -0.998734
 H         1.660399         1.822562         1.120440
 H         1.927693         0.472447         2.205671
 H         4.346774         0.838768         0.504443
 H         4.735520        -1.716057        -0.221147
 H         1.516295        -2.044613        -0.643846
 H         1.909333        -1.969986         1.179146
 H         2.932336        -0.005012        -2.750609
