19
Iteration:   425
 C        -0.048968         0.344943        -0.312960
 C         1.356911        -0.112525         0.171355
 C         2.199426         0.726292         1.161052
 C         3.384701         0.551119         0.236496
 C         3.302118        -0.937141        -0.341943
 O         4.368467        -1.647441        -0.731415
 C         1.948211        -1.527814         0.212292
 C         2.544018         0.268507        -0.954852
 O         2.401378         1.171717        -2.001263
 H        -0.721579         0.656097         0.577136
 H        -0.026378         1.164338        -1.008538
 H        -0.568526        -0.392889        -0.788966
 H         1.996616         1.872887         0.979253
 H         2.195761         0.564316         2.221110
 H         4.362839         0.951582         0.395621
 H         5.007246        -1.749551         0.127541
 H         1.503535        -2.061527        -0.531441
 H         1.779833        -1.956790         1.249627
 H         2.643715         0.828646        -2.859595
