19
Iteration:  3518
 C        -0.123425         0.312569        -0.266004
 C         1.369746        -0.037668        -0.033839
 C         2.069236         0.659172         1.190727
 C         3.367235         0.451590         0.482311
 C         3.193937        -0.904054        -0.309020
 O         4.385077        -1.545721        -0.765819
 C         1.925442        -1.538603         0.136328
 C         2.628572         0.402120        -0.878983
 O         2.633529         1.066367        -2.092578
 H        -0.767920        -0.038165         0.554560
 H        -0.239082         1.360425        -0.450374
 H        -0.607523        -0.177219        -0.986957
 H         1.883221         1.773474         1.430476
 H         1.938370         0.285754         2.216143
 H         4.366090         0.709997         0.719819
 H         4.169447        -2.171702        -1.577409
 H         1.516965        -2.248647        -0.591566
 H         1.862147        -1.814387         1.208408
 H         3.149318         1.876914        -1.954121
