19
Iteration:  4330charge 0 multiplicity 1
 C        -0.137488         0.189359        -0.336604
 C         1.320029         0.030344        -0.028817
 C         2.018191         0.733729         1.312817
 C         3.367770         0.532240         0.537130
 C         3.249607        -0.848275        -0.284087
 O         4.242144        -1.602332        -0.913498
 C         1.963882        -1.414635         0.137860
 C         2.649371         0.366796        -0.785782
 O         2.778826         0.871886        -2.085347
 H        -0.661848        -0.513182         0.208923
 H        -0.434097         1.066536         0.046464
 H        -0.415418         0.093026        -1.363744
 H         1.965341         1.810036         1.356444
 H         1.995134         0.112715         2.218844
 H         4.328376         0.975060         0.767019
 H         4.630935        -1.009432        -1.636771
 H         1.322972        -1.975539        -0.536328
 H         1.950023        -1.814617         1.158751
 H         2.544680         1.884845        -2.173832
