19
Iteration:   912charge 0 multiplicity 1
 C        -0.171968         0.159479        -0.082025
 C         1.337074         0.032014         0.069122
 C         2.093934         0.740045         1.189983
 C         3.434116         0.561504         0.388879
 C         3.299005        -0.835423        -0.300696
 O         4.341764        -1.671389        -0.757898
 C         1.920408        -1.399784         0.108990
 C         2.511859         0.370175        -0.918591
 O         2.679787         0.948225        -2.221910
 H        -0.525230        -0.402069         0.752364
 H        -0.599898         1.226329         0.028781
 H        -0.493783        -0.367858        -1.089049
 H         1.835713         1.829734         1.373553
 H         2.119324         0.182145         2.053819
 H         4.367481         1.024667         0.359383
 H         5.240109        -1.192847        -0.572425
 H         1.437771        -2.018170        -0.719577
 H         1.782453        -2.023345         1.044385
 H         2.135560         1.797062        -2.333504
