19
Iteration:   850charge 0 multiplicity 1
 C        -0.092626         0.194731        -0.195663
 C         1.356532        -0.038987         0.077711
 C         2.124921         0.802009         1.139289
 C         3.355957         0.496919         0.308575
 C         3.277603        -0.894725        -0.284951
 O         4.391270        -1.696856        -0.693104
 C         1.969626        -1.447372         0.149886
 C         2.531987         0.231256        -0.996856
 O         2.467286         1.184959        -2.054325
 H        -0.680178        -0.250712         0.659449
 H        -0.371796         1.212194        -0.370439
 H        -0.465473        -0.420006        -0.955151
 H         1.809040         1.817631         1.082299
 H         2.241315         0.512514         2.285863
 H         4.312204         0.931964         0.082963
 H         5.131808        -1.102916        -0.743491
 H         1.394667        -2.109058        -0.524481
 H         1.911448        -1.741695         1.159770
 H         3.417252         1.238526        -2.397247
