19
Iteration:  4468
 C        -0.090455         0.235223        -0.311198
 C         1.355386         0.026796         0.017971
 C         2.009578         0.710289         1.242247
 C         3.366307         0.386990         0.453782
 C         3.205262        -0.912640        -0.356845
 O         4.441663        -1.515173        -0.738598
 C         1.871184        -1.460805         0.152589
 C         2.605801         0.373926        -0.835816
 O         2.634429         1.094095        -2.059863
 H        -0.665899         0.056857         0.566111
 H        -0.396075         1.224676        -0.694257
 H        -0.300412        -0.512398        -1.080208
 H         2.030063         1.751114         1.416701
 H         1.874452         0.142312         2.200557
 H         4.318125         0.801674         0.706270
 H         4.457994        -1.798919        -1.721243
 H         1.311701        -1.954577        -0.610257
 H         1.880432        -1.986945         1.109402
 H         3.131268         0.733006        -2.766543
