19
Iteration:  2460
 C        -0.049282         0.185758        -0.349387
 C         1.408885        -0.002263        -0.001458
 C         1.959593         0.671503         1.279848
 C         3.369890         0.454748         0.629249
 C         3.247634        -0.885422        -0.383473
 O         4.399404        -1.572098        -0.863481
 C         1.888422        -1.464481         0.128010
 C         2.629307         0.499231        -0.788311
 O         2.595954         1.015546        -2.108675
 H        -0.586639        -0.430013         0.306175
 H        -0.314106         1.235649        -0.220700
 H        -0.348515        -0.099465        -1.307318
 H         1.846736         1.773255         1.346364
 H         1.599250         0.338823         2.332881
 H         4.214806         0.798187         1.102469
 H         4.206532        -1.654975        -1.832032
 H         1.396591        -2.130089        -0.597952
 H         1.886391        -1.893303         1.174818
 H         3.456509         1.485950        -2.229299
