19
Iteration:  2186
 C        -0.091654         0.297395        -0.238276
 C         1.325528        -0.094122         0.048069
 C         2.032026         0.639788         1.240793
 C         3.339279         0.535408         0.489170
 C         3.279398        -0.855732        -0.368883
 O         4.351972        -1.669627        -0.762840
 C         1.929778        -1.578084        -0.018067
 C         2.612135         0.405330        -0.876363
 O         2.689197         1.169994        -2.014748
 H        -0.671279        -0.321982         0.368818
 H        -0.296095         1.422034        -0.066417
 H        -0.386698         0.165976        -1.264547
 H         1.652580         1.694949         1.188745
 H         1.922451         0.369321         2.268357
 H         4.423382         0.907598         0.484413
 H         5.143369        -1.220128        -0.581692
 H         1.557046        -2.067796        -0.918147
 H         1.799552        -2.165301         0.892682
 H         1.819226         1.035784        -2.548815
