19
Iteration:  1262charge 0 multiplicity 1
 C        -0.104730         0.088079        -0.125992
 C         1.368672        -0.111950         0.125457
 C         2.041580         0.781768         1.122714
 C         3.325023         0.531195         0.306812
 C         3.236935        -0.845504        -0.416537
 O         4.484090        -1.538956        -0.702250
 C         2.041217        -1.457136         0.242571
 C         2.512500         0.336072        -0.964107
 O         2.545966         1.103868        -2.173915
 H        -0.702090        -0.554060         0.487953
 H        -0.366076         1.227918        -0.002947
 H        -0.312031        -0.126632        -1.284799
 H         1.555860         1.811276         1.141609
 H         1.839370         0.345814         2.102130
 H         4.318297         0.991033         0.221019
 H         4.410072        -2.505145        -0.471392
 H         1.426935        -2.087015        -0.405653
 H         2.127485        -1.855701         1.231516
 H         2.905185         1.875622        -1.803765
