19
Iteration:   483charge 0 multiplicity 1
 C        -0.068960         0.208941        -0.159606
 C         1.332235        -0.052555         0.188809
 C         2.150667         0.790269         1.187274
 C         3.382245         0.567037         0.332201
 C         3.196428        -0.857193        -0.338512
 O         4.226214        -1.565893        -0.837043
 C         1.918904        -1.518478         0.190368
 C         2.583878         0.417388        -0.881730
 O         2.742237         0.967048        -2.176504
 H        -0.688202        -0.289894         0.602051
 H        -0.315854         1.250614        -0.090227
 H        -0.339845        -0.248489        -1.160909
 H         1.888888         1.852781         1.267395
 H         2.186480         0.376503         2.147208
 H         4.361266         1.164866         0.339188
 H         4.936642        -1.490581        -0.039007
 H         1.438278        -2.093853        -0.695393
 H         1.772349        -2.167459         1.091428
 H         2.056731         0.592938        -2.780870
