19
Iteration:  2599
 C        -0.109552         0.276484        -0.338423
 C         1.279942        -0.044505         0.047258
 C         2.100891         0.604390         1.204414
 C         3.368113         0.421205         0.411455
 C         3.206892        -0.882477        -0.389053
 O         4.398798        -1.495185        -0.699710
 C         1.889546        -1.501205         0.226708
 C         2.591987         0.404389        -0.898031
 O         2.706115         1.148006        -2.014788
 H        -0.794753        -0.509886         0.167204
 H        -0.352714         1.261425        -0.014619
 H        -0.327163         0.262766        -1.434874
 H         1.892744         1.680194         1.434901
 H         2.028605         0.028222         2.123605
 H         4.329728         0.859203         0.502636
 H         4.375390        -1.750038        -1.741880
 H         1.413190        -2.143213        -0.541105
 H         1.897637        -1.958436         1.191481
 H         2.664803         0.524678        -2.721020
