19
Iteration:  1103charge 0 multiplicity 1
 C        -0.163887         0.080942        -0.162561
 C         1.328165         0.072731         0.094397
 C         2.127109         0.725702         1.192314
 C         3.371079         0.570078         0.358472
 C         3.298004        -0.843636        -0.254356
 O         4.410254        -1.518061        -0.723343
 C         1.967213        -1.408761         0.134374
 C         2.516976         0.365730        -0.890882
 O         2.690345         0.949674        -2.186860
 H        -0.718880        -0.549496         0.682638
 H        -0.627085         1.057604        -0.167404
 H        -0.389028        -0.411491        -1.073507
 H         1.769365         1.683705         1.205547
 H         2.205154         0.300555         2.217129
 H         4.213533         1.178692         0.379382
 H         4.101808        -1.822157        -1.626023
 H         1.582484        -2.105047        -0.655156
 H         1.875425        -2.007823         1.081498
 H         1.790895         1.051513        -2.443053
