19
Iteration:  1323charge 0 multiplicity 1
 C        -0.069941         0.143748        -0.231030
 C         1.374729        -0.024454         0.146578
 C         2.105533         0.746089         1.376558
 C         3.289897         0.632132         0.511732
 C         3.252354        -0.796698        -0.290806
 O         4.312470        -1.402498        -0.941947
 C         1.934804        -1.472732         0.034219
 C         2.580880         0.468130        -0.854616
 O         2.670236         0.640608        -2.190905
 H        -0.742420        -0.175684         0.641162
 H        -0.414823         1.101369        -0.444702
 H        -0.353614        -0.400199        -1.061401
 H         1.659018         1.701081         1.562581
 H         2.105400         0.047386         2.302569
 H         4.354282         1.170648         0.633440
 H         5.086539        -1.054503        -0.727022
 H         1.482215        -1.865424        -0.886331
 H         1.880394        -2.179925         0.940596
 H         2.336869         1.512869        -2.457613
