19
Iteration:  3711charge 0 multiplicity 1
 C        -0.097297         0.328600        -0.151865
 C         1.347413        -0.104951         0.046833
 C         2.015080         0.621787         1.212253
 C         3.335473         0.543245         0.437834
 C         3.222833        -0.847426        -0.370359
 O         4.383061        -1.503964        -0.732419
 C         1.850857        -1.496974         0.032511
 C         2.619244         0.358310        -0.853980
 O         2.804479         0.931966        -2.107229
 H        -0.654812        -0.043644         0.688326
 H        -0.152236         1.426540        -0.047332
 H        -0.580865         0.026515        -1.158340
 H         1.470504         1.738275         1.356671
 H         1.818192         0.308123         2.331802
 H         4.328195         0.984200         0.584385
 H         4.270536        -1.644173        -1.773713
 H         1.511271        -2.059218        -0.878245
 H         1.702770        -2.216841         0.852330
 H         2.510073         1.822491        -2.062343
