19
Iteration:  1737
 C        -0.111066         0.339423        -0.143478
 C         1.275619        -0.054350         0.036278
 C         2.018690         0.586634         1.239157
 C         3.284397         0.526166         0.496229
 C         3.252261        -0.866187        -0.307342
 O         4.433572        -1.363049        -0.904721
 C         1.884521        -1.512653        -0.012641
 C         2.593419         0.353145        -0.855400
 O         2.722938         0.845611        -2.114156
 H        -0.724230         0.053879         0.708093
 H        -0.164023         1.523915        -0.285496
 H        -0.548971        -0.266174        -0.946220
 H         1.643199         1.655878         1.360039
 H         1.908336         0.120682         2.195555
 H         4.345758         1.014147         0.697581
 H         4.962957        -1.908469        -0.173417
 H         1.724997        -2.079568        -0.930270
 H         1.759918        -2.106032         0.917359
 H         2.949327         1.830341        -1.991266
