19
Iteration:  2967charge 0 multiplicity 1
 C        -0.060789         0.268342        -0.315647
 C         1.290371        -0.054141         0.072412
 C         2.066244         0.745675         1.281566
 C         3.345982         0.478440         0.366985
 C         3.229987        -0.860140        -0.324827
 O         4.332506        -1.601282        -0.727925
 C         1.977099        -1.548270         0.121617
 C         2.538608         0.334113        -0.883598
 O         2.666290         1.048547        -2.068913
 H        -0.592240        -0.177600         0.434450
 H        -0.244425         1.378688        -0.351159
 H        -0.427980        -0.090185        -1.261028
 H         1.830747         1.785523         1.074389
 H         2.040665         0.342108         2.403881
 H         4.331855         0.826011         0.411732
 H         4.625959        -1.288936        -1.623209
 H         1.579647        -2.220109        -0.649643
 H         2.002811        -2.054030         1.086861
 H         2.953691         1.994639        -1.898568
