19
Iteration:  2139charge 0 multiplicity 1
 C        -0.104163         0.199510        -0.280226
 C         1.320810        -0.032878         0.089870
 C         2.130993         0.662063         1.255175
 C         3.342296         0.453327         0.459682
 C         3.199645        -0.942875        -0.332709
 O         4.265922        -1.447383        -0.932207
 C         1.841869        -1.556579         0.085486
 C         2.564680         0.418519        -0.818048
 O         2.758802         1.089928        -2.028570
 H        -0.787187         0.198730         0.603559
 H        -0.046501         1.261974        -0.756648
 H        -0.533844        -0.329468        -1.154954
 H         1.842261         1.668864         1.475623
 H         2.121505         0.120677         2.241030
 H         4.259223         0.871177         0.606587
 H         5.085013        -1.099576        -0.367226
 H         1.396957        -2.144088        -0.775112
 H         1.752216        -2.077025         1.040374
 H         3.688301         0.866605        -2.360094
