19
Iteration:  1157charge 0 multiplicity 1
 C        -0.050713         0.297225        -0.282777
 C         1.330024        -0.090200         0.145218
 C         2.021329         0.730584         1.262017
 C         3.330826         0.568244         0.371425
 C         3.326282        -0.774806        -0.246909
 O         4.449354        -1.434406        -0.884182
 C         1.976465        -1.510306         0.196857
 C         2.504148         0.281848        -0.858998
 O         2.481159         0.759089        -2.151683
 H        -0.676026         0.235152         0.684831
 H         0.064351         1.343172        -0.391486
 H        -0.516153        -0.155179        -1.087921
 H         1.574055         1.697003         1.434458
 H         2.059412         0.243503         2.267209
 H         4.196527         1.102270         0.413551
 H         5.046812        -0.739037        -1.412989
 H         1.620376        -2.194538        -0.652938
 H         1.961526        -2.066452         1.192533
 H         3.247673         1.324814        -2.222736
