19
Iteration:  1171
 C        -0.063136         0.349758        -0.234050
 C         1.348305        -0.135530         0.066614
 C         2.075024         0.667924         1.217332
 C         3.322841         0.646249         0.396221
 C         3.334564        -0.875910        -0.242690
 O         4.448464        -1.473699        -0.827880
 C         2.027480        -1.505780         0.219355
 C         2.477293         0.253805        -0.858217
 O         2.431731         0.870677        -2.157881
 H        -0.931299         0.203881         0.535491
 H        -0.089894         1.375425        -0.619815
 H        -0.403594        -0.327037        -1.060827
 H         1.739407         1.635172         1.164310
 H         2.077081         0.320261         2.297854
 H         4.227327         1.359578         0.330899
 H         4.813293        -0.691080        -1.345566
 H         1.696755        -2.210857        -0.524079
 H         1.891334        -2.024732         1.203964
 H         3.355798         1.218837        -2.287692
