19
Iteration:    39
 C        -0.056200         0.263500        -0.341992
 C         1.383548         0.004317         0.037658
 C         2.188303         0.739858         1.209793
 C         3.457695         0.572560         0.317180
 C         3.276068        -0.871129        -0.318292
 O         4.352144        -1.606597        -0.654082
 C         1.957495        -1.446833         0.160530
 C         2.625774         0.343645        -0.939440
 O         2.288034         0.931060        -2.087937
 H        -0.708479        -0.536438         0.106593
 H        -0.406389         1.258351         0.000528
 H        -0.185229         0.231560        -1.494951
 H         1.977284         1.884142         1.245038
 H         2.254489         0.191672         2.209568
 H         4.442687         1.018782         0.441710
 H         4.722357        -2.108467         0.196446
 H         1.521172        -2.123286        -0.607491
 H         2.021452        -1.910847         1.176713
 H         2.849040         1.657431        -2.215929
