19
Iteration:  4650charge 0 multiplicity 1
 C        -0.109874         0.240598        -0.465018
 C         1.328895        -0.037733         0.128964
 C         2.064364         0.676417         1.258996
 C         3.353110         0.463746         0.458082
 C         3.268271        -0.922334        -0.256035
 O         4.367527        -1.479304        -0.844174
 C         1.859779        -1.454928         0.107048
 C         2.603121         0.260411        -0.837481
 O         2.793837         1.090017        -1.949940
 H        -0.806108         0.546965         0.485759
 H        -0.251770         1.248047        -1.031273
 H        -0.422542        -0.690996        -1.002387
 H         1.842159         1.773117         1.511855
 H         1.821023         0.304075         2.201949
 H         4.313187         0.959154         0.449742
 H         4.139369        -1.622444        -1.711906
 H         1.295957        -1.955428        -0.754199
 H         1.756627        -1.983321         1.062067
 H         2.068667         0.965026        -2.533324
