19
Iteration:  3177
 C        -0.174946         0.340652        -0.321180
 C         1.260853        -0.087981         0.068349
 C         2.062621         0.744194         1.197638
 C         3.364445         0.534818         0.363777
 C         3.230499        -0.893470        -0.275552
 O         4.416047        -1.502162        -0.802281
 C         2.000002        -1.595845         0.161869
 C         2.508916         0.292857        -0.852262
 O         2.774996         1.019194        -2.003257
 H        -0.917176        -0.130270         0.424750
 H        -0.307948         1.441255        -0.094351
 H        -0.417498         0.161547        -1.464133
 H         1.740057         1.735301         1.000752
 H         2.043327         0.306393         2.183274
 H         4.345236         0.983767         0.297625
 H         3.947929        -2.315042        -1.335787
 H         1.678736        -2.177364        -0.760548
 H         1.852961        -2.196000         1.029737
 H         2.693505         1.922208        -1.803047
