19
Iteration:   878charge 0 multiplicity 1
 C        -0.138869         0.109454        -0.095896
 C         1.341052        -0.045970         0.104180
 C         2.131541         0.780643         1.110518
 C         3.418986         0.586680         0.293028
 C         3.176122        -0.815935        -0.401131
 O         4.331148        -1.736777        -0.607579
 C         1.985372        -1.507948         0.118974
 C         2.565846         0.416460        -0.973605
 O         2.564943         1.123250        -2.166568
 H        -0.570644        -0.438518         0.737760
 H        -0.657944         1.137319        -0.057527
 H        -0.560583        -0.439957        -1.063891
 H         1.781612         1.850132         1.284296
 H         2.178917         0.405418         2.071115
 H         4.498242         0.682582         0.275237
 H         5.083671        -1.293714        -0.524459
 H         1.347834        -2.084386        -0.572830
 H         2.166561        -1.913710         1.180263
 H         3.360510         1.656914        -2.126773
