19
Iteration:  3734charge 0 multiplicity 1
 C        -0.178861         0.307394        -0.184292
 C         1.345381         0.035686         0.012264
 C         2.121946         0.601907         1.228330
 C         3.337344         0.380243         0.410709
 C         3.231646        -0.882094        -0.322848
 O         4.470319        -1.512401        -0.608163
 C         1.876779        -1.509422         0.013354
 C         2.597307         0.404847        -0.952850
 O         2.644908         1.052724        -2.167941
 H        -0.734658        -0.154090         0.541315
 H        -0.418981         1.416574        -0.061800
 H        -0.487293         0.029723        -1.246933
 H         1.854501         1.711982         1.603953
 H         1.950830         0.029124         2.224935
 H         4.375455         0.694365         0.711811
 H         4.169242        -2.200308        -1.223568
 H         1.437852        -2.198781        -0.730969
 H         1.901563        -2.066830         0.951054
 H         2.870880         2.060561        -2.114649
