19
Iteration:  4981charge 0 multiplicity 1
 C        -0.083544         0.309614        -0.453520
 C         1.323512         0.030625         0.028011
 C         2.070126         0.651345         1.283844
 C         3.382437         0.450318         0.468230
 C         3.243281        -0.929333        -0.290252
 O         4.372717        -1.627400        -0.785005
 C         1.896660        -1.476720         0.229324
 C         2.608066         0.379895        -0.840121
 O         2.619653         1.030589        -2.093134
 H        -1.008766        -0.127041         0.017923
 H        -0.294677         1.349299        -0.428506
 H        -0.120299         0.051130        -1.453344
 H         1.756272         1.797214         1.479469
 H         2.106437         0.104971         2.281887
 H         4.356493         0.964771         0.702462
 H         4.418599        -1.407752        -1.673766
 H         1.559868        -2.204010        -0.544314
 H         1.932924        -1.852984         1.276389
 H         2.863908         1.903801        -2.015070
