19
Iteration:  4208
 C        -0.148233         0.302906        -0.358951
 C         1.360984        -0.022070         0.084870
 C         2.207330         0.615529         1.295566
 C         3.381507         0.512941         0.340606
 C         3.248367        -0.892842        -0.343892
 O         4.414180        -1.584029        -0.589561
 C         1.873780        -1.474730        -0.007452
 C         2.553664         0.337171        -0.897914
 O         2.594497         1.111918        -2.083468
 H        -0.781879         0.355134         0.514165
 H        -0.374935         1.156536        -0.985651
 H        -0.431406        -0.549325        -0.963158
 H         1.829526         1.636905         1.674186
 H         2.000383        -0.003901         2.317633
 H         4.439365         0.886663         0.356612
 H         4.239212        -2.439718        -1.096353
 H         1.406123        -2.034035        -0.808970
 H         1.818201        -2.007223         0.954312
 H         2.728095         2.037923        -1.849473
