19
Iteration:  4721
 C        -0.163628         0.244693        -0.210372
 C         1.343836        -0.020300        -0.048760
 C         2.106917         0.574398         1.208086
 C         3.446275         0.504979         0.395366
 C         3.239261        -0.888263        -0.326234
 O         4.343631        -1.605882        -0.530187
 C         1.843562        -1.472438        -0.038867
 C         2.643930         0.452248        -0.859892
 O         2.621905         1.164618        -2.097765
 H        -0.709179        -0.314033         0.471987
 H        -0.279379         1.282965         0.137725
 H        -0.511087         0.041432        -1.269420
 H         1.667897         1.494812         1.343446
 H         2.173603         0.126633         2.179435
 H         4.348039         1.094130         0.447317
 H         4.221329        -2.087837        -1.310309
 H         1.785974        -1.959866        -1.015279
 H         1.661584        -2.222195         0.805059
 H         3.404162         0.897691        -2.469580
