19
Iteration:  4571charge 0 multiplicity 1
 C        -0.214280         0.257307        -0.190584
 C         1.342906         0.005570         0.028681
 C         2.115742         0.666447         1.223147
 C         3.334817         0.478763         0.395673
 C         3.197736        -0.903763        -0.379457
 O         4.456868        -1.528722        -0.677842
 C         1.847931        -1.482523        -0.004587
 C         2.636298         0.355880        -0.929305
 O         2.697569         1.124402        -2.045306
 H        -0.813030        -0.560507         0.392998
 H        -0.268852         1.314689         0.053888
 H        -0.580217         0.164790        -1.226785
 H         1.786346         1.703810         1.433462
 H         2.068001         0.049642         2.093831
 H         4.351225         0.881320         0.467430
 H         4.522940        -2.022673         0.166423
 H         1.445190        -2.031078        -0.860612
 H         1.612743        -2.110140         0.865603
 H         3.011448         0.587595        -2.843628
