19
Iteration:  2919
 C        -0.108825         0.275372        -0.269387
 C         1.355590        -0.000349        -0.027681
 C         2.110875         0.684092         1.253722
 C         3.343547         0.370708         0.502442
 C         3.222755        -0.899567        -0.345994
 O         4.461788        -1.509254        -0.735101
 C         1.927612        -1.478958         0.100017
 C         2.572594         0.384389        -0.873285
 O         2.588332         1.050952        -2.119209
 H        -0.760602         0.251509         0.651744
 H        -0.146117         1.242798        -0.703711
 H        -0.575260        -0.407390        -0.956340
 H         1.849549         1.813075         1.306823
 H         1.813049        -0.011737         2.091700
 H         4.387390         0.730835         0.794326
 H         4.250447        -2.186276        -1.312321
 H         1.471142        -2.147790        -0.635500
 H         1.848724        -1.928830         1.108894
 H         2.711051         1.978535        -2.059746
