19
Iteration:   962
 C        -0.061443         0.354475        -0.248046
 C         1.344065         0.010452         0.085335
 C         2.075327         0.649289         1.269438
 C         3.286197         0.561810         0.399718
 C         3.290802        -0.866812        -0.237810
 O         4.369137        -1.426185        -0.985119
 C         1.907883        -1.467570         0.218135
 C         2.575026         0.292968        -0.888455
 O         2.642396         0.787683        -2.116015
 H        -0.749235         0.070362         0.611315
 H        -0.076779         1.379768        -0.451900
 H        -0.348193        -0.233950        -1.048723
 H         2.025294         1.732386         1.293610
 H         2.088563         0.141838         2.329820
 H         4.372690         0.907031         0.428329
 H         5.181871        -1.143206        -0.445422
 H         1.571723        -2.160059        -0.501920
 H         1.771604        -1.935602         1.192952
 H         1.699284         1.066178        -2.284346
