19
Iteration:  3390
 C        -0.111982         0.328870        -0.165116
 C         1.333737        -0.119458         0.080679
 C         2.075637         0.665439         1.295446
 C         3.388405         0.450917         0.323045
 C         3.150863        -0.949837        -0.386259
 O         4.457164        -1.393690        -0.649891
 C         1.774320        -1.568090         0.040737
 C         2.544697         0.389649        -0.900775
 O         2.777003         1.005972        -2.124803
 H        -0.958676        -0.170903         0.295561
 H        -0.260288         1.418158         0.067021
 H        -0.176703         0.432075        -1.393101
 H         1.808408         1.612106         1.170431
 H         2.174777         0.232884         2.259870
 H         4.382689         0.862633         0.303628
 H         4.483391        -2.180428        -1.246000
 H         1.318901        -2.196727        -0.680853
 H         1.729950        -2.080640         1.005468
 H         2.624585         1.931959        -2.139358
