19
Iteration:  3669
 C        -0.149684         0.177876        -0.252670
 C         1.294160         0.018462         0.082370
 C         2.044514         0.622080         1.304738
 C         3.402262         0.477857         0.597206
 C         3.199416        -0.831913        -0.258759
 O         4.258573        -1.397683        -0.974442
 C         1.850615        -1.387492         0.075757
 C         2.639755         0.443387        -0.824075
 O         2.879025         0.741230        -2.144518
 H        -0.803697         0.186332         0.539895
 H        -0.417726         1.231579        -0.579391
 H        -0.437449        -0.381730        -1.192290
 H         1.802221         1.653887         1.442844
 H         1.982202         0.020989         2.211999
 H         4.454723         0.719515         0.888953
 H         4.558801        -0.928009        -1.655129
 H         1.235965        -2.057663        -0.552392
 H         1.816405        -1.877723         1.025378
 H         2.974651         1.713542        -2.227636
