19
Iteration:  4074
 C        -0.184093         0.301924        -0.127215
 C         1.291605         0.029993         0.021593
 C         2.037672         0.657860         1.218235
 C         3.377235         0.501118         0.472586
 C         3.247428        -0.860236        -0.204646
 O         4.380141        -1.403353        -0.768932
 C         1.868964        -1.467716        -0.056977
 C         2.538221         0.407240        -0.838122
 O         2.841459         0.772526        -2.123990
 H        -0.839775        -0.258408         0.692263
 H        -0.135980         1.345900         0.065100
 H        -0.540601        -0.063047        -1.074321
 H         1.778891         1.711258         1.026450
 H         2.102231        -0.138922         2.031101
 H         4.398896         0.903620         0.638731
 H         4.230621        -1.697479        -1.627598
 H         1.493531        -1.975387        -0.971729
 H         1.706703        -2.313564         0.682815
 H         2.877523         1.765051        -2.299260
