19
Iteration:  4140charge 0 multiplicity 1
 C        -0.129251         0.210157        -0.354548
 C         1.307963        -0.070698         0.063623
 C         2.088333         0.737300         1.281825
 C         3.392500         0.561818         0.430318
 C         3.225893        -0.863536        -0.245271
 O         4.293533        -1.601156        -0.852886
 C         1.897306        -1.474045         0.122329
 C         2.575080         0.325169        -0.836403
 O         2.762959         0.960277        -2.082036
 H        -0.970103        -0.157998         0.315823
 H        -0.308709         1.220555        -0.132084
 H        -0.330181         0.125683        -1.401533
 H         1.680609         1.893461         1.162092
 H         2.171766         0.409620         2.483980
 H         4.334279         1.027673         0.530392
 H         4.516113        -0.991886        -1.565543
 H         1.549154        -2.215881        -0.613196
 H         1.857389        -1.963229         1.118053
 H         3.038232         1.806733        -1.786780
