19
Iteration:    43charge 0 multiplicity 1
 C        -0.047169         0.270308        -0.374485
 C         1.381411         0.007096         0.038989
 C         2.186882         0.734168         1.209517
 C         3.464598         0.591165         0.264767
 C         3.267853        -0.860410        -0.267543
 O         4.364575        -1.620450        -0.655518
 C         1.955912        -1.446917         0.149860
 C         2.630559         0.353539        -0.925677
 O         2.275166         0.912930        -2.077058
 H        -0.712964        -0.556972         0.097691
 H        -0.399771         1.216742         0.045447
 H        -0.237146         0.276910        -1.363382
 H         2.031024         1.732758         1.224189
 H         2.162990         0.240822         2.148499
 H         4.477999         0.948735         0.398009
 H         4.766719        -2.104287         0.124424
 H         1.493000        -2.065103        -0.580471
 H         1.999743        -1.938290         1.152188
 H         2.826010         1.806507        -1.980684
