19
Iteration:  1519
 C        -0.107298         0.288645        -0.251593
 C         1.319834        -0.105489         0.138294
 C         2.067936         0.611690         1.324630
 C         3.332173         0.560712         0.478443
 C         3.233912        -0.801525        -0.338307
 O         4.369896        -1.402656        -0.935831
 C         1.957326        -1.559182         0.081989
 C         2.591207         0.422485        -0.809572
 O         2.678552         0.808192        -2.167445
 H        -0.940481         0.264264         0.676335
 H        -0.094344         1.339688        -0.507526
 H        -0.525228        -0.239920        -1.081905
 H         1.724441         1.675251         1.180279
 H         1.765129         0.205887         2.306296
 H         4.273069         0.963592         0.594523
 H         5.150138        -1.098798        -0.299432
 H         1.630307        -2.234565        -0.673620
 H         1.900076        -2.007960         1.067774
 H         2.339058         1.655732        -2.409695
