19
Iteration:    50charge 0 multiplicity 1
 C        -0.028123         0.278705        -0.380742
 C         1.418738         0.007984         0.062570
 C         2.205444         0.723969         1.156955
 C         3.447718         0.618084         0.226001
 C         3.279333        -0.870318        -0.200040
 O         4.393365        -1.645398        -0.687091
 C         1.944542        -1.436224         0.156291
 C         2.575611         0.320102        -0.858350
 O         2.296280         0.933069        -2.094499
 H        -0.715214        -0.542549         0.018153
 H        -0.403491         1.194958         0.128398
 H        -0.272331         0.357739        -1.541275
 H         1.867431         1.875996         1.328140
 H         2.033528         0.318005         2.235594
 H         4.502225         0.820315         0.255933
 H         4.937810        -2.124661         0.201577
 H         1.497987        -2.057552        -0.654880
 H         1.760804        -2.017571         1.105949
 H         2.368355         1.888684        -1.835117
