19
Iteration:  2519charge 0 multiplicity 1
 C        -0.106923         0.312483        -0.209100
 C         1.317755        -0.066586         0.071805
 C         1.996499         0.542115         1.296025
 C         3.283595         0.471481         0.396534
 C         3.222999        -0.882007        -0.373787
 O         4.439501        -1.479111        -0.656188
 C         1.954188        -1.490290         0.041770
 C         2.565703         0.365389        -0.916414
 O         2.725424         1.057500        -2.148039
 H        -0.689632         0.477598         0.664707
 H        -0.115588         1.298453        -0.683162
 H        -0.552633        -0.387096        -0.948939
 H         1.748396         1.640719         1.334979
 H         1.980686        -0.104197         2.165732
 H         4.267568         0.989347         0.690869
 H         4.313348        -1.973979        -1.549624
 H         1.428456        -2.084915        -0.704806
 H         2.007573        -2.083195         0.937084
 H         2.906857         1.969847        -2.022725
