19
Iteration:  3786charge 0 multiplicity 1
 C        -0.069294         0.223597        -0.373530
 C         1.412567        -0.037123         0.054861
 C         2.134575         0.717061         1.233907
 C         3.391545         0.469633         0.429790
 C         3.270651        -0.939101        -0.300908
 O         4.333388        -1.701805        -0.621792
 C         1.963165        -1.483974         0.082502
 C         2.566008         0.349018        -0.941968
 O         2.475748         1.218451        -2.054886
 H        -0.785695         0.096336         0.520210
 H        -0.264368         1.284102        -0.372935
 H        -0.229254         0.048895        -1.458666
 H         1.738873         1.715366         1.073209
 H         1.949183         0.348700         2.226150
 H         4.404119         0.936239         0.518983
 H         4.257341        -1.914774        -1.489350
 H         1.561446        -2.204576        -0.681713
 H         1.984556        -2.120365         1.015864
 H         3.138120         1.978328        -2.036357
