19
Iteration:  4788charge 0 multiplicity 1
 C        -0.078510         0.388271        -0.362372
 C         1.337078        -0.051572         0.017463
 C         2.051696         0.654340         1.243616
 C         3.336844         0.515720         0.448510
 C         3.194814        -0.939012        -0.313320
 O         4.348797        -1.512644        -0.771849
 C         1.929448        -1.547293         0.149554
 C         2.598837         0.324332        -0.866122
 O         2.744930         1.006667        -2.030692
 H        -0.834013        -0.200626         0.168016
 H        -0.271647         1.434772        -0.072971
 H        -0.285190         0.163223        -1.453466
 H         1.733613         1.618306         1.477349
 H         1.961433         0.161991         2.214908
 H         4.385933         0.852828         0.549626
 H         4.371741        -1.899268        -1.723015
 H         1.489739        -2.054266        -0.738595
 H         1.790493        -2.099436         1.151255
 H         2.457847         2.005577        -1.840818
