19
Iteration:  1197charge 0 multiplicity 1
 C        -0.057537         0.157002        -0.238971
 C         1.399106        -0.056981         0.042100
 C         2.078368         0.763401         1.225107
 C         3.394031         0.588183         0.410421
 C         3.240830        -0.870443        -0.410740
 O         4.424307        -1.553382        -0.639129
 C         2.044452        -1.474962         0.163294
 C         2.557297         0.366080        -0.890520
 O         2.347097         0.987396        -2.167028
 H        -0.661354        -0.040223         0.607701
 H        -0.269422         1.259217        -0.511667
 H        -0.544147        -0.564252        -1.012314
 H         1.630149         1.864919         1.320105
 H         2.156435         0.354951         2.240729
 H         4.500590         0.667566         0.510119
 H         4.767551        -1.232313        -1.412461
 H         1.509767        -2.240052        -0.409484
 H         2.157793        -1.939295         1.117391
 H         3.256866         1.285868        -2.462157
