19
Iteration:  4004
 C        -0.103565         0.252485        -0.388260
 C         1.359787        -0.003820         0.016187
 C         2.152608         0.737385         1.246352
 C         3.417065         0.496452         0.390079
 C         3.244262        -0.910037        -0.287505
 O         4.340073        -1.602925        -0.671983
 C         1.912695        -1.512252         0.088827
 C         2.620311         0.341587        -0.861536
 O         2.576160         1.087599        -2.015855
 H        -0.746583         0.037601         0.406663
 H        -0.167514         1.193437        -0.808810
 H        -0.288104        -0.551700        -1.100521
 H         1.898567         1.888237         1.175454
 H         2.099063         0.067039         2.174567
 H         4.374780         0.960167         0.438422
 H         4.217245        -2.017193        -1.505816
 H         1.391320        -1.977085        -0.768907
 H         1.715034        -2.109746         0.978243
 H         2.347639         1.961348        -1.729012
