19
Iteration:   948
 C        -0.030602         0.316474        -0.178448
 C         1.366371        -0.049980         0.137081
 C         2.074160         0.761631         1.246857
 C         3.397984         0.505248         0.416029
 C         3.218450        -0.877898        -0.285376
 O         4.333063        -1.441052        -0.921866
 C         1.926540        -1.531508         0.193335
 C         2.503145         0.321210        -0.851354
 O         2.690952         0.836567        -2.203494
 H        -0.778097        -0.001985         0.592341
 H        -0.195429         1.395573        -0.331945
 H        -0.397986        -0.137262        -1.105700
 H         1.564123         1.680718         1.319845
 H         1.909880         0.324692         2.279170
 H         4.335773         1.096478         0.647082
 H         5.228431        -1.000984        -0.630087
 H         1.490950        -2.089884        -0.672894
 H         1.861270        -2.061784         1.107444
 H         1.864710         1.144916        -2.648017
