19
Iteration:  1545charge 0 multiplicity 1
 C        -0.115383         0.192529        -0.215950
 C         1.363080         0.025598         0.060549
 C         2.044169         0.567376         1.329524
 C         3.323064         0.586062         0.452593
 C         3.296430        -0.763375        -0.256678
 O         4.306433        -1.485729        -0.792622
 C         1.977772        -1.396064         0.001209
 C         2.639119         0.411251        -0.831338
 O         2.660124         0.774841        -2.174842
 H        -0.749413        -0.030551         0.761418
 H        -0.383453         1.258980        -0.406415
 H        -0.535958        -0.479366        -1.030225
 H         1.682106         1.529347         1.566253
 H         1.978560        -0.181369         2.211942
 H         4.406429         0.934527         0.563802
 H         4.735096        -0.925122        -1.419242
 H         1.746842        -1.768639        -1.026196
 H         1.679637        -2.114372         0.789922
 H         2.375433         1.692573        -2.313363
