19
Iteration:  3900
 C        -0.149285         0.295709        -0.075281
 C         1.310142        -0.031129        -0.016552
 C         2.067215         0.654691         1.194146
 C         3.351004         0.462772         0.516351
 C         3.183329        -0.826909        -0.297609
 O         4.342535        -1.451593        -0.688743
 C         1.880233        -1.483406        -0.085824
 C         2.647703         0.477555        -0.848342
 O         2.811450         0.763793        -2.176210
 H        -0.588417        -0.228059         0.740767
 H        -0.316339         1.389867         0.256703
 H        -0.591095         0.197726        -1.083441
 H         1.745207         1.728005         1.238329
 H         1.780444         0.216724         2.178908
 H         4.290077         0.919050         0.769746
 H         4.480493        -1.290609        -1.721869
 H         1.694562        -2.096000        -0.969993
 H         1.668980        -2.112513         0.796371
 H         2.631198         1.708216        -2.311400
