19
Iteration:  3842
 C        -0.055217         0.262350        -0.317159
 C         1.285617        -0.026113         0.154257
 C         2.144073         0.659747         1.269035
 C         3.371526         0.432402         0.422354
 C         3.165507        -0.841450        -0.304601
 O         4.309897        -1.429237        -0.783334
 C         1.863665        -1.516763         0.145163
 C         2.501417         0.401263        -0.858783
 O         2.819468         0.928286        -2.128894
 H        -0.919435         0.036449         0.390362
 H        -0.067154         1.291815        -0.663456
 H        -0.467063        -0.470438        -1.046292
 H         1.799356         1.633919         1.193387
 H         1.985011         0.208707         2.224197
 H         4.424361         0.759342         0.590836
 H         4.175257        -1.628493        -1.707560
 H         1.615817        -2.015122        -0.817052
 H         1.755448        -2.120056         1.057502
 H         3.048220         1.889625        -2.047582
