19
Iteration:  4809charge 0 multiplicity 1
 C         0.011377         0.302706        -0.393614
 C         1.301435        -0.043462         0.148564
 C         1.999578         0.665458         1.322431
 C         3.309335         0.469457         0.505284
 C         3.214308        -0.859468        -0.302206
 O         4.354087        -1.582425        -0.892848
 C         1.867140        -1.477791         0.104814
 C         2.560307         0.420078        -0.814756
 O         2.812139         0.963941        -2.046643
 H        -0.901357         0.040717         0.160309
 H        -0.027608         1.455477        -0.570099
 H        -0.192159        -0.258349        -1.422285
 H         1.737688         1.661482         1.351171
 H         2.062064         0.367299         2.323599
 H         4.228478         1.053704         0.686592
 H         4.389730        -1.610887        -1.893729
 H         1.411857        -2.196663        -0.613312
 H         2.002372        -1.992219         1.104767
 H         2.209849         1.673185        -2.237869
