19
Iteration:  2118charge 0 multiplicity 1
 C        -0.100556         0.217382        -0.248369
 C         1.335573         0.003048         0.122678
 C         2.050316         0.697727         1.337374
 C         3.407010         0.476722         0.563961
 C         3.267981        -0.866534        -0.337892
 O         4.319978        -1.429248        -0.983510
 C         1.808595        -1.458037        -0.051383
 C         2.596586         0.385831        -0.802785
 O         2.700083         0.956514        -2.043387
 H        -0.658877         0.115338         0.664416
 H        -0.414405         1.109740        -0.940135
 H        -0.419948        -0.603482        -0.909281
 H         1.771562         1.743453         1.302431
 H         1.786056         0.294173         2.329450
 H         4.365447         0.774781         0.753904
 H         4.627888        -2.154812        -0.316550
 H         1.616460        -1.872581        -1.077603
 H         1.797490        -2.211322         0.700169
 H         3.553638         0.933230        -2.385942
