19
Iteration:  1595
 C        -0.151974         0.178401        -0.134966
 C         1.307843        -0.070563         0.060967
 C         2.067539         0.712154         1.169431
 C         3.334608         0.460276         0.400799
 C         3.248442        -0.891980        -0.381167
 O         4.413247        -1.394530        -0.766669
 C         1.891034        -1.526051         0.104267
 C         2.515023         0.277732        -0.964657
 O         2.765494         1.089328        -2.103469
 H        -0.809235        -0.479699         0.352743
 H        -0.333467         1.191381         0.140568
 H        -0.408112         0.011108        -1.137681
 H         1.747485         1.813941         1.119483
 H         2.074732         0.337672         2.176760
 H         4.259850         0.880259         0.392571
 H         4.534520        -2.433791        -0.502365
 H         1.460119        -2.316728        -0.492359
 H         2.018944        -1.786479         1.190644
 H         2.784709         2.019082        -1.688482
