19
Iteration:   856charge 0 multiplicity 1
 C        -0.117560         0.156026        -0.149978
 C         1.355335        -0.067445         0.097402
 C         2.147145         0.798934         1.156453
 C         3.346906         0.493215         0.290230
 C         3.270097        -0.936407        -0.337283
 O         4.354280        -1.699221        -0.654876
 C         1.990910        -1.466002         0.134826
 C         2.513671         0.276517        -0.972440
 O         2.506936         1.198457        -2.096037
 H        -0.743847        -0.145601         0.684811
 H        -0.437477         1.243364        -0.327232
 H        -0.378951        -0.390398        -1.171939
 H         1.887242         1.913594         1.053718
 H         2.241352         0.691215         2.183886
 H         4.271970         1.104631         0.177771
 H         5.219673        -1.009721        -0.708396
 H         1.457295        -2.088995        -0.604700
 H         1.918506        -1.751964         1.250205
 H         3.430762         1.406039        -2.456127
