19
Iteration:  1028charge 0 multiplicity 1
 C        -0.122950         0.202568        -0.189207
 C         1.330519        -0.050515         0.052486
 C         2.137408         0.759964         1.176173
 C         3.398612         0.629340         0.304764
 C         3.299945        -0.903662        -0.304735
 O         4.449813        -1.562434        -0.734769
 C         1.924275        -1.492444         0.126529
 C         2.597317         0.410711        -0.891412
 O         2.436054         1.004883        -2.118288
 H        -0.619564        -0.312553         0.735315
 H        -0.615292         1.128051        -0.354616
 H        -0.394356        -0.446458        -0.985172
 H         1.969176         1.817492         1.166497
 H         2.112533         0.272765         2.234948
 H         4.408784         0.977347         0.412698
 H         4.284827        -2.629465        -0.435631
 H         1.525600        -2.155722        -0.598406
 H         1.884529        -1.968333         1.091511
 H         3.220468         1.602237        -2.223794
