19
Iteration:  2537charge 0 multiplicity 1
 C        -0.173186         0.306522        -0.196734
 C         1.368458        -0.045924        -0.091014
 C         2.012824         0.567600         1.195558
 C         3.388867         0.445606         0.549579
 C         3.272638        -0.797943        -0.354154
 O         4.430021        -1.559592        -0.628524
 C         1.915918        -1.484060         0.004305
 C         2.655584         0.453698        -0.889599
 O         2.656871         1.036373        -2.159003
 H        -0.549184         0.159656         0.838657
 H        -0.407104         1.384823        -0.517762
 H        -0.788310        -0.341486        -0.783215
 H         1.704321         1.588876         1.504071
 H         1.855740        -0.144151         2.125013
 H         4.395483         0.829987         0.824821
 H         4.176652        -2.015127        -1.523136
 H         1.735188        -2.239298        -0.773019
 H         1.845394        -1.950671         1.053180
 H         2.095451         1.784054        -2.070325
