19
Iteration:  3241charge 0 multiplicity 1
 C        -0.231745         0.251743        -0.178729
 C         1.312661         0.003563         0.067653
 C         2.089643         0.614686         1.292891
 C         3.410432         0.584187         0.495104
 C         3.285195        -0.775755        -0.230746
 O         4.299353        -1.528717        -0.735163
 C         1.851608        -1.450686        -0.072647
 C         2.642087         0.392299        -0.848609
 O         2.794701         0.786816        -2.228863
 H        -0.967983        -0.222677         0.628457
 H        -0.445565         1.348307         0.008830
 H        -0.641438        -0.181300        -1.122551
 H         1.696539         1.649354         1.618081
 H         2.150364         0.051141         2.185688
 H         4.346773         1.070295         0.648204
 H         4.882048        -1.009019        -1.439064
 H         1.694247        -1.690245        -1.171276
 H         1.610795        -2.287323         0.635478
 H         2.592001         1.719545        -2.169871
