19
Iteration:  1530
 C        -0.082877         0.273375        -0.235623
 C         1.316558        -0.061078         0.073831
 C         2.073740         0.624913         1.284608
 C         3.377757         0.593197         0.547807
 C         3.247548        -0.767665        -0.290552
 O         4.326677        -1.463892        -0.888670
 C         1.951386        -1.531360         0.022950
 C         2.519308         0.454350        -0.858133
 O         2.685247         0.764607        -2.161354
 H        -0.754126         0.035194         0.739720
 H        -0.176544         1.296322        -0.555784
 H        -0.444084        -0.406151        -0.975697
 H         1.681803         1.643979         1.592160
 H         2.118225        -0.018700         2.202891
 H         4.209152         1.109584         0.869457
 H         5.232975        -0.850627        -0.765296
 H         1.559983        -2.094067        -0.795503
 H         1.980856        -2.149488         0.922063
 H         2.294428         1.614359        -2.284924
