19
Iteration:  4499
 C        -0.089781         0.210001        -0.374276
 C         1.289573        -0.099059         0.073175
 C         2.032940         0.733174         1.320177
 C         3.404690         0.508524         0.445659
 C         3.244424        -0.838019        -0.274815
 O         4.310666        -1.481179        -0.868675
 C         1.891711        -1.517811         0.177694
 C         2.511548         0.421480        -0.854801
 O         2.803336         1.065360        -2.038443
 H        -0.757386        -0.425875         0.087883
 H        -0.250328         1.331260        -0.318564
 H        -0.120005        -0.072561        -1.413931
 H         2.002998         1.883604         1.375342
 H         2.127557         0.008531         2.309351
 H         4.290084         1.117428         0.472078
 H         4.081135        -2.306279        -1.207990
 H         1.431382        -2.181454        -0.637550
 H         1.900610        -2.043287         1.178885
 H         2.786151         0.364733        -2.782634
