19
Iteration:   344charge 0 multiplicity 1
 C        -0.092561         0.215170         0.003906
 C         1.341872        -0.049543         0.133039
 C         2.079086         0.769802         1.119022
 C         3.325968         0.586599         0.400444
 C         3.138794        -0.799357        -0.318752
 O         4.208491        -1.429302        -0.955539
 C         1.905587        -1.446203         0.164686
 C         2.529108         0.367400        -0.920251
 O         2.906954         0.805451        -2.138369
 H        -0.731054        -0.307609         0.621416
 H        -0.207110         1.322914         0.154526
 H        -0.463609        -0.029650        -1.099144
 H         1.851762         1.810402         1.248363
 H         2.212763         0.194631         2.169205
 H         4.403290         0.947227         0.568981
 H         5.030379        -1.701339        -0.217366
 H         1.307567        -1.996550        -0.604031
 H         1.915596        -1.990306         1.050434
 H         2.831917         0.040530        -2.690051
