19
Iteration:  1002
 C         0.029345         0.240399        -0.263150
 C         1.359923        -0.065735         0.170455
 C         2.122010         0.747912         1.274509
 C         3.341006         0.526567         0.410398
 C         3.270775        -0.843402        -0.307501
 O         4.344259        -1.471095        -0.796481
 C         2.003677        -1.423444         0.099653
 C         2.554236         0.371298        -0.890543
 O         2.468951         0.849054        -2.217141
 H        -0.668227         0.107008         0.635654
 H        -0.193849         1.295194        -0.622355
 H        -0.336092        -0.422290        -1.105554
 H         1.887527         1.813403         1.389560
 H         2.137736         0.254376         2.244062
 H         4.393827         0.983451         0.669082
 H         4.477150        -2.477785        -0.379228
 H         1.463591        -1.991575        -0.740725
 H         2.122243        -2.017466         1.031477
 H         2.265669         1.792919        -2.142196
