19
Iteration:  1259charge 0 multiplicity 1
 C        -0.116128         0.080474        -0.140614
 C         1.358892        -0.115169         0.115884
 C         2.049794         0.789931         1.103526
 C         3.331343         0.524114         0.308422
 C         3.247019        -0.854129        -0.409547
 O         4.472311        -1.543042        -0.681846
 C         2.035877        -1.462582         0.231595
 C         2.517949         0.341416        -0.947169
 O         2.530172         1.113566        -2.170029
 H        -0.678293        -0.574802         0.528537
 H        -0.389429         1.147573        -0.054839
 H        -0.296609        -0.112897        -1.218937
 H         1.658548         1.739263         1.130161
 H         2.035919         0.339533         2.166270
 H         4.359677         1.115796         0.140853
 H         4.248075        -2.396918        -0.484785
 H         1.474172        -2.064259        -0.487122
 H         2.180540        -1.879739         1.285185
 H         3.005787         1.940560        -1.831772
