19
Iteration:  2475charge 0 multiplicity 1
 C        -0.110094         0.217839        -0.341081
 C         1.306690         0.035408         0.056270
 C         2.048336         0.696073         1.227914
 C         3.375500         0.352913         0.532771
 C         3.218129        -0.877870        -0.271343
 O         4.414563        -1.426030        -0.844723
 C         1.880260        -1.485497         0.098285
 C         2.630455         0.326403        -0.836335
 O         2.640622         1.028307        -2.027088
 H        -0.773560        -0.203970         0.405198
 H        -0.442729         1.280990        -0.465445
 H        -0.232142        -0.332543        -1.298532
 H         1.814725         1.782192         1.137293
 H         1.876082         0.228167         2.161698
 H         4.478011         0.658090         0.617186
 H         4.309574        -1.600800        -1.740744
 H         1.438860        -2.091122        -0.668605
 H         1.723319        -1.965879         1.044663
 H         3.468989         1.457161        -2.138165
