19
Iteration:  4059
 C        -0.147710         0.362853        -0.130805
 C         1.299256        -0.066714        -0.024644
 C         2.076151         0.588397         1.192376
 C         3.340590         0.501981         0.395483
 C         3.220457        -0.840370        -0.275841
 O         4.424949        -1.411147        -0.696812
 C         1.851817        -1.524448        -0.015447
 C         2.588276         0.391711        -0.844556
 O         2.766143         0.853318        -2.118913
 H        -0.669481        -0.022776         0.697044
 H        -0.192722         1.451604        -0.197936
 H        -0.739269        -0.051694        -0.982516
 H         1.666643         1.676262         1.480581
 H         1.963323         0.224873         2.287924
 H         4.327221         0.948630         0.565996
 H         4.294627        -1.829616        -1.592623
 H         1.585329        -2.077468        -0.938686
 H         1.651024        -2.059802         0.914824
 H         3.052306         1.728403        -2.045615
