19
Iteration:  3155charge 0 multiplicity 1
 C        -0.031510         0.282658        -0.317677
 C         1.348956        -0.056761         0.057222
 C         1.997561         0.684685         1.195741
 C         3.310051         0.480169         0.416548
 C         3.269077        -0.897002        -0.372734
 O         4.411659        -1.625963        -0.720920
 C         1.942181        -1.474756         0.159338
 C         2.565819         0.301847        -0.913700
 O         2.614299         1.124196        -2.032127
 H        -0.741043         0.056282         0.524068
 H        -0.090942         1.399912        -0.461510
 H        -0.236622        -0.128767        -1.386030
 H         1.802232         1.696785         1.010847
 H         1.982008         0.216538         2.177311
 H         4.257022         1.041889         0.525896
 H         4.205236        -2.060621        -1.498806
 H         1.491335        -2.349656        -0.383053
 H         2.004846        -1.726940         1.199568
 H         2.821128         2.056186        -1.658294
