19
Iteration:  4755charge 0 multiplicity 1
 C        -0.103762         0.289448        -0.210670
 C         1.364911         0.051369         0.001826
 C         2.048635         0.652776         1.311256
 C         3.376948         0.375089         0.465226
 C         3.193619        -0.926679        -0.394171
 O         4.453142        -1.567815        -0.573019
 C         1.856238        -1.444383        -0.028014
 C         2.607016         0.394765        -0.891109
 O         2.602215         1.085335        -2.166151
 H        -0.652606        -0.525289         0.199566
 H        -0.478921         1.249148         0.140330
 H        -0.410020         0.406958        -1.275076
 H         1.857854         1.673265         1.329050
 H         1.973142         0.101765         2.269106
 H         4.358360         0.843195         0.465159
 H         4.669261        -2.250026        -1.286002
 H         1.388713        -1.878401        -0.952734
 H         1.623789        -2.209088         0.810604
 H         3.396418         1.631393        -2.223079
