19
Iteration:   244
 C        -0.027935         0.366180        -0.398663
 C         1.407418        -0.002479         0.025882
 C         2.234200         0.682549         1.151513
 C         3.462445         0.487974         0.335822
 C         3.315827        -0.899183        -0.316918
 O         4.397983        -1.642141        -0.755339
 C         1.924823        -1.403032         0.214605
 C         2.545597         0.358652        -0.856283
 O         2.236645         0.989916        -1.982178
 H        -0.723085         0.211255         0.392908
 H        -0.040677         1.428859        -0.644474
 H        -0.455159        -0.206133        -1.338472
 H         1.964077         1.665525         1.264205
 H         2.124416         0.200085         2.092097
 H         4.265548         1.137388         0.543937
 H         4.837028        -2.087416         0.162137
 H         1.390279        -2.141205        -0.504072
 H         1.901517        -1.715521         1.213462
 H         2.958731         0.881829        -2.558681
