19
Iteration:   841charge 0 multiplicity 1
 C        -0.083098         0.205144        -0.240379
 C         1.383382         0.024290        -0.005358
 C         2.126126         0.798018         1.136989
 C         3.395468         0.513512         0.295978
 C         3.299429        -0.888536        -0.299216
 O         4.405628        -1.676085        -0.733515
 C         1.898516        -1.455221         0.237589
 C         2.541872         0.255976        -0.968988
 O         2.418473         1.123803        -1.989286
 H        -0.610553        -0.112040         0.791638
 H        -0.280349         1.231724        -0.411607
 H        -0.468207        -0.388573        -1.017589
 H         1.808045         1.808516         1.134120
 H         1.881838         0.215289         2.082813
 H         4.446050         0.980923         0.339271
 H         5.197534        -1.171216        -0.765156
 H         1.571877        -2.189972        -0.495250
 H         1.944645        -2.070748         1.200779
 H         3.307137         1.122537        -2.477403
