19
Iteration:  3078
 C        -0.138936         0.391335        -0.162715
 C         1.336124        -0.115575        -0.036937
 C         2.005763         0.572390         1.177518
 C         3.332374         0.510295         0.462234
 C         3.270106        -0.854603        -0.295890
 O         4.388067        -1.480676        -0.736914
 C         1.910550        -1.506526         0.078553
 C         2.633767         0.376374        -0.866845
 O         2.718925         0.966015        -2.147762
 H        -0.707084         0.346565         0.714113
 H        -0.113965         1.462485        -0.356015
 H        -0.661417        -0.267674        -0.864553
 H         1.577407         1.585879         1.155433
 H         1.896880         0.169199         2.340489
 H         4.370223         0.776742         0.824510
 H         4.232737        -1.981728        -1.663314
 H         1.604536        -2.281214        -0.664081
 H         1.842104        -1.939112         1.060966
 H         2.791734         1.905363        -1.971323
