19
Iteration:   699charge 0 multiplicity 1
 C        -0.181603         0.050304        -0.050634
 C         1.324529         0.028980         0.040035
 C         2.171244         0.767678         1.192942
 C         3.392207         0.532919         0.348746
 C         3.215491        -0.773451        -0.301035
 O         4.276241        -1.620879        -0.831124
 C         1.859204        -1.329106         0.193686
 C         2.550672         0.358780        -1.011367
 O         2.792781         1.031079        -2.129912
 H        -0.659270        -0.534128         0.862272
 H        -0.636510         1.017191         0.022234
 H        -0.567621        -0.370028        -0.929762
 H         1.814825         1.761387         1.208397
 H         2.135583         0.233952         2.134196
 H         4.276557         1.051506         0.183249
 H         5.035236        -1.743725        -0.173582
 H         1.494650        -1.994867        -0.534716
 H         1.706873        -1.945514         1.140587
 H         3.050093         0.366492        -2.797290
