19
Iteration:  1261charge 0 multiplicity 1
 C        -0.108819         0.084334        -0.128587
 C         1.366263        -0.114634         0.123374
 C         2.043704         0.785620         1.114783
 C         3.325661         0.526959         0.307951
 C         3.239070        -0.847329        -0.414992
 O         4.480417        -1.543685        -0.694782
 C         2.039874        -1.458341         0.239366
 C         2.514446         0.338100        -0.957441
 O         2.541016         1.108105        -2.173472
 H        -0.685353        -0.556941         0.496574
 H        -0.375804         1.217474        -0.021678
 H        -0.306944        -0.121994        -1.281670
 H         1.587095         1.779881         1.140677
 H         1.899779         0.339074         2.123564
 H         4.346751         1.039475         0.187309
 H         4.365115        -2.425014        -0.485700
 H         1.440805        -2.070072        -0.431458
 H         2.145735        -1.862579         1.250566
 H         2.934619         1.884721        -1.811078
