19
Iteration:  3571
 C        -0.146240         0.296362        -0.241137
 C         1.389005        -0.017021         0.033441
 C         2.205886         0.570457         1.196539
 C         3.461293         0.472139         0.331459
 C         3.198368        -0.912733        -0.355407
 O         4.432991        -1.614636        -0.447778
 C         1.839144        -1.492558        -0.039414
 C         2.617868         0.444516        -0.925329
 O         2.537430         1.139458        -2.125584
 H        -0.890450        -0.273665         0.505840
 H        -0.571828         1.317924         0.023699
 H        -0.504983         0.039105        -1.313074
 H         1.940275         1.579788         1.407528
 H         2.088532        -0.017153         2.094831
 H         4.450315         0.838816         0.452061
 H         4.428836        -2.201039        -1.268910
 H         1.281557        -1.986335        -0.863414
 H         1.681058        -2.102365         0.835107
 H         2.528879         2.103988        -1.999723
