19
Iteration:  4635
 C        -0.089500         0.241895        -0.372164
 C         1.316985         0.021343        -0.011356
 C         2.033427         0.684583         1.282731
 C         3.342869         0.488288         0.496676
 C         3.207625        -0.905361        -0.334533
 O         4.416562        -1.604142        -0.832249
 C         1.853436        -1.514807         0.140174
 C         2.609826         0.454765        -0.789900
 O         2.760561         1.070292        -1.969000
 H        -0.804386         0.380908         0.433202
 H        -0.136573         1.078117        -1.008637
 H        -0.487114        -0.506886        -1.020906
 H         1.753837         1.735328         1.247464
 H         2.051362         0.022953         2.259812
 H         4.300226         0.950664         0.748265
 H         4.553067        -1.323385        -1.821994
 H         1.535122        -2.159171        -0.657502
 H         1.739862        -1.982315         1.138514
 H         2.109221         0.728815        -2.730087
