19
Iteration:  3152charge 0 multiplicity 1
 C        -0.015980         0.270469        -0.343721
 C         1.347159        -0.031360         0.040205
 C         2.017739         0.674142         1.221655
 C         3.313687         0.476448         0.419684
 C         3.238687        -0.916508        -0.363427
 O         4.421079        -1.632915        -0.702143
 C         1.955246        -1.480042         0.158466
 C         2.579502         0.306247        -0.921461
 O         2.592561         1.149875        -2.055003
 H        -0.758195         0.035153         0.613582
 H        -0.145674         1.438204        -0.451770
 H        -0.269859        -0.241435        -1.306138
 H         1.734219         1.771812         1.103106
 H         1.935737         0.259170         2.167855
 H         4.360327         0.907906         0.596295
 H         4.153153        -1.993018        -1.588799
 H         1.499043        -2.332534        -0.401250
 H         1.966884        -1.716635         1.268685
 H         2.811086         2.031239        -1.727594
