19
Iteration:  2955
 C        -0.090142         0.272911        -0.309988
 C         1.371150        -0.079779         0.080541
 C         2.138471         0.774462         1.156482
 C         3.312189         0.466359         0.322692
 C         3.176951        -0.938067        -0.358967
 O         4.380589        -1.515051        -0.691881
 C         1.938650        -1.568696         0.138409
 C         2.458263         0.273900        -0.909280
 O         2.702212         1.066364        -1.976617
 H        -0.878716         0.151042         0.331846
 H        -0.033340         1.392230        -0.437321
 H        -0.304812        -0.143888        -1.226536
 H         1.825703         1.817852         1.400937
 H         2.212360         0.354367         2.299679
 H         4.310477         0.810667         0.277760
 H         4.552667        -1.280212        -1.555484
 H         1.438036        -2.119615        -0.634960
 H         1.963108        -2.107118         1.091038
 H         2.658548         1.910681        -1.589666
