19
Iteration:  3054charge 0 multiplicity 1
 C        -0.178662         0.389468        -0.161894
 C         1.311415         0.005772         0.009251
 C         2.021464         0.660733         1.222067
 C         3.294630         0.401364         0.474864
 C         3.205571        -0.938947        -0.368188
 O         4.446913        -1.345729        -0.825061
 C         1.865060        -1.544496         0.141504
 C         2.548544         0.291764        -0.884203
 O         2.904268         0.904476        -2.121486
 H        -0.847436        -0.004298         0.643839
 H        -0.265889         1.505037        -0.005614
 H        -0.600310        -0.043872        -1.018477
 H         1.749034         1.730612         1.378223
 H         1.727431         0.053816         2.200282
 H         4.134257         1.066680         0.563555
 H         4.468986        -1.848825        -1.592691
 H         1.416138        -2.330167        -0.476611
 H         2.087049        -1.959868         1.128021
 H         2.444885         1.729486        -2.185517
