19
Iteration:  3697
 C        -0.114971         0.321682        -0.186056
 C         1.292561        -0.015311         0.043415
 C         2.028866         0.700093         1.269869
 C         3.290244         0.553607         0.461487
 C         3.233416        -0.882266        -0.263996
 O         4.345819        -1.499205        -0.856552
 C         1.927619        -1.537382        -0.024026
 C         2.548632         0.370324        -0.820584
 O         2.883848         0.843832        -2.052445
 H        -0.807359        -0.004542         0.770891
 H        -0.307428         1.388745        -0.279042
 H        -0.552044        -0.121564        -1.108875
 H         1.744584         1.831067         1.247101
 H         2.054848         0.053528         2.170904
 H         4.257550         0.950009         0.595211
 H         4.419407        -1.252224        -1.738971
 H         1.478154        -2.058179        -0.902587
 H         1.882809        -2.138351         0.949256
 H         2.423920         1.728394        -2.221463
