19
Iteration:   976charge 0 multiplicity 1
 C        -0.123895         0.334474        -0.312421
 C         1.340599        -0.058060         0.080609
 C         2.152702         0.711860         1.264730
 C         3.449647         0.574208         0.423712
 C         3.255737        -0.885038        -0.314478
 O         4.372774        -1.409907        -0.936753
 C         1.927655        -1.484154         0.202693
 C         2.571971         0.316569        -0.804948
 O         2.576155         0.789238        -2.127817
 H        -0.745589         0.274881         0.540818
 H        -0.235066         1.426875        -0.559568
 H        -0.633103        -0.190377        -1.192523
 H         1.632133         1.671565         1.660197
 H         2.152291         0.046534         2.121626
 H         4.264740         1.161985         0.578955
 H         5.098364        -1.694384        -0.336005
 H         1.407557        -2.139797        -0.520443
 H         1.969572        -1.911713         1.268192
 H         1.754086         1.191053        -2.321814
