19
Iteration:   728charge 0 multiplicity 1
 C        -0.187118         0.191696        -0.025410
 C         1.313633        -0.040188         0.098979
 C         2.097952         0.818845         1.179760
 C         3.284746         0.597822         0.389544
 C         3.220825        -0.822546        -0.294457
 O         4.305454        -1.491499        -0.954028
 C         1.902209        -1.474332         0.173449
 C         2.611089         0.395885        -0.924164
 O         2.830083         0.867639        -2.151989
 H        -0.746811        -0.464402         0.640970
 H        -0.405924         1.269339         0.231973
 H        -0.738247        -0.003195        -0.977762
 H         1.654067         1.825384         1.126065
 H         2.141302         0.322342         2.204734
 H         4.327325         0.940229         0.502764
 H         5.027526        -1.813829        -0.180105
 H         1.462748        -2.088719        -0.723085
 H         1.930923        -2.102979         1.064653
 H         2.995155         0.128413        -2.681664
