19
Iteration:  1907
 C        -0.117152         0.349488        -0.195108
 C         1.355391        -0.089096        -0.000553
 C         2.001958         0.602614         1.203133
 C         3.347329         0.604585         0.536975
 C         3.307401        -0.857022        -0.228308
 O         4.433554        -1.547295        -0.740061
 C         1.963016        -1.520560        -0.133751
 C         2.660388         0.384029        -0.800681
 O         2.510139         0.976717        -2.052074
 H        -0.741906         0.223358         0.766142
 H        -0.038099         1.335527        -0.500280
 H        -0.693002        -0.094095        -1.071491
 H         1.550518         1.592428         1.290722
 H         1.862862         0.137969         2.233319
 H         4.292705         0.982082         0.603863
 H         4.359900        -1.346406        -1.600545
 H         1.680755        -2.135329        -1.040738
 H         1.759252        -2.247912         0.716573
 H         3.383445         1.020701        -2.597571
