19
Iteration:  4424charge 0 multiplicity 1
 C        -0.075621         0.326581        -0.190859
 C         1.380975        -0.006501         0.015482
 C         2.039263         0.630527         1.240076
 C         3.352084         0.507690         0.403990
 C         3.223416        -0.843658        -0.360414
 O         4.431179        -1.583516        -0.545644
 C         1.947689        -1.589484        -0.078990
 C         2.591672         0.374385        -0.877348
 O         2.516710         1.111976        -2.121808
 H        -0.502761         0.611324         0.803198
 H        -0.067115         1.319278        -0.772732
 H        -0.630413        -0.450779        -0.771755
 H         1.713747         1.626257         1.281795
 H         1.982327        -0.041213         2.062279
 H         4.355890         0.899480         0.526661
 H         4.262311        -2.263514        -1.235984
 H         1.531611        -2.069147        -0.939786
 H         1.997418        -2.127041         0.887161
 H         3.408102         1.279370        -2.282036
