19
Iteration:  4654charge 0 multiplicity 1
 C        -0.107572         0.259544        -0.447167
 C         1.328627        -0.037528         0.141189
 C         2.097884         0.694050         1.268443
 C         3.348837         0.437206         0.458582
 C         3.227615        -0.935761        -0.234661
 O         4.352831        -1.440226        -0.832935
 C         1.890714        -1.478538         0.097754
 C         2.605199         0.263851        -0.871380
 O         2.795190         1.085872        -1.936484
 H        -0.763424         0.491479         0.305808
 H        -0.303262         1.190027        -1.042276
 H        -0.386620        -0.661340        -1.024184
 H         1.752666         1.707664         1.308526
 H         1.778555         0.226566         2.268993
 H         4.337465         0.949246         0.429508
 H         4.042663        -1.807021        -1.794982
 H         1.507074        -1.971498        -0.792454
 H         1.672182        -1.940810         1.114413
 H         2.049428         1.083638        -2.703978
