19
Iteration:   968
 C        -0.083910         0.349124        -0.282531
 C         1.316357        -0.029261         0.078428
 C         2.102563         0.664813         1.256707
 C         3.340652         0.574380         0.412621
 C         3.303775        -0.879950        -0.284792
 O         4.368570        -1.412385        -0.959871
 C         1.907554        -1.446359         0.213064
 C         2.594473         0.278659        -0.815068
 O         2.610716         0.787898        -2.122381
 H        -0.706164         0.130158         0.582793
 H        -0.123610         1.485786        -0.503475
 H        -0.583959        -0.271481        -1.150466
 H         1.996120         1.758398         1.542083
 H         2.178683         0.126256         2.156530
 H         4.332563         1.029272         0.464980
 H         5.123240        -1.354671        -0.476819
 H         1.422748        -2.195695        -0.520175
 H         1.906898        -1.915221         1.236408
 H         1.744232         1.085986        -2.270898
