19
Iteration:   866
 C        -0.153759         0.101086        -0.115124
 C         1.341329        -0.043566         0.105560
 C         2.186943         0.815879         1.154678
 C         3.373537         0.514226         0.249600
 C         3.228461        -0.898742        -0.429415
 O         4.332380        -1.714729        -0.607642
 C         1.960768        -1.518048         0.181211
 C         2.530366         0.410233        -0.965960
 O         2.539151         1.176899        -2.138151
 H        -0.839965        -0.275065         0.684465
 H        -0.240632         1.216177        -0.225155
 H        -0.463942        -0.371709        -1.138240
 H         1.944687         1.891197         0.898465
 H         2.046421         0.538033         2.151741
 H         4.289670         1.151415         0.429235
 H         5.236938        -1.121286        -0.619409
 H         1.596569        -2.225690        -0.567018
 H         2.077198        -2.230572         1.106840
 H         3.518921         1.483870        -2.259527
