19
Iteration:  4933charge 0 multiplicity 1
 C        -0.138424         0.243767        -0.252826
 C         1.314140        -0.001549         0.082351
 C         2.107332         0.725945         1.233215
 C         3.392237         0.443487         0.457236
 C         3.207492        -0.875041        -0.364164
 O         4.410111        -1.628645        -0.585719
 C         1.885915        -1.520046        -0.063099
 C         2.586713         0.486445        -0.876285
 O         2.732832         1.054334        -2.142267
 H        -0.871597        -0.469598         0.405349
 H        -0.617278         1.200319         0.094830
 H        -0.494549        -0.080308        -1.294173
 H         1.986211         1.820730         1.326536
 H         1.896591         0.253709         2.227703
 H         4.449879         0.569483         0.544151
 H         4.102725        -2.243963        -1.355234
 H         1.407507        -1.890029        -1.015856
 H         1.837530        -2.072657         0.935480
 H         2.498084         2.094731        -2.117592
