19
Iteration:  3071
 C        -0.098487         0.390567        -0.155056
 C         1.281352        -0.080228        -0.061198
 C         1.955830         0.555347         1.152715
 C         3.329501         0.421571         0.462669
 C         3.245242        -0.824268        -0.319041
 O         4.430110        -1.435006        -0.769539
 C         1.956436        -1.487055         0.149137
 C         2.587075         0.363124        -0.905927
 O         2.775052         0.931896        -2.105935
 H        -0.635721         0.207593         0.855748
 H        -0.073586         1.461712        -0.296891
 H        -0.814759        -0.044273        -0.929446
 H         1.701583         1.627414         1.290224
 H         1.801436         0.173669         2.193076
 H         4.350462         0.665758         0.688495
 H         4.115069        -1.905930        -1.581717
 H         1.536361        -2.189766        -0.575665
 H         1.742449        -1.837494         1.189240
 H         2.657382         1.847158        -2.014182
