19
Iteration:  1062
 C        -0.099467         0.144865        -0.088474
 C         1.351762        -0.077827         0.093921
 C         2.066751         0.780996         1.120607
 C         3.360272         0.476674         0.282541
 C         3.231439        -0.848490        -0.384267
 O         4.433719        -1.556727        -0.672736
 C         1.966706        -1.478221         0.181512
 C         2.504679         0.330084        -1.017398
 O         2.603586         1.201343        -2.092794
 H        -0.488797        -0.645173         0.635297
 H        -0.539913         1.110371         0.089077
 H        -0.353112        -0.362830        -1.014359
 H         1.850631         1.894415         1.054019
 H         1.828205         0.541731         2.224857
 H         4.210025         1.027309         0.279224
 H         4.316049        -2.562239        -0.521992
 H         1.476969        -2.220059        -0.365640
 H         2.146348        -1.793778         1.204696
 H         3.106920         0.801994        -2.904544
