19
Iteration:  3056
 C        -0.175343         0.392033        -0.154620
 C         1.320499         0.002926        -0.007161
 C         2.011410         0.661204         1.207370
 C         3.294728         0.386048         0.477846
 C         3.207326        -0.932158        -0.362573
 O         4.449092        -1.351435        -0.821897
 C         1.876313        -1.532591         0.153079
 C         2.531426         0.295539        -0.883526
 O         2.896558         0.904119        -2.117634
 H        -0.725580         0.059048         0.637786
 H        -0.216382         1.461751        -0.018888
 H        -0.653273        -0.032325        -1.044038
 H         1.775805         1.727505         1.351258
 H         1.674320        -0.063858         2.182352
 H         4.159180         1.088165         0.584568
 H         4.434246        -1.860058        -1.582688
 H         1.448171        -2.339251        -0.480640
 H         2.098606        -1.936450         1.115232
 H         2.426652         1.802789        -2.185692
