19
Iteration:  1319charge 0 multiplicity 1
 C        -0.055699         0.155543        -0.222331
 C         1.347866        -0.026099         0.145662
 C         2.117074         0.724459         1.350032
 C         3.272220         0.610775         0.496288
 C         3.253341        -0.788822        -0.267487
 O         4.306063        -1.407379        -0.953944
 C         1.953009        -1.454089         0.042312
 C         2.564162         0.462123        -0.842862
 O         2.681913         0.654551        -2.196935
 H        -0.723079        -0.258216         0.613210
 H        -0.467395         1.199399        -0.368042
 H        -0.285926        -0.557611        -1.083959
 H         1.670108         1.798400         1.444879
 H         2.242761         0.200343         2.279777
 H         4.200988         1.055564         0.652274
 H         5.294810        -1.118013        -0.562735
 H         1.533825        -1.919531        -0.871994
 H         1.800606        -2.098025         0.879168
 H         2.237548         1.558352        -2.300143
