19
Iteration:  1454charge 0 multiplicity 1
 C        -0.109944         0.059239        -0.204991
 C         1.370803         0.008897         0.067793
 C         2.076866         0.735597         1.263867
 C         3.356578         0.572859         0.346073
 C         3.281439        -0.822386        -0.385660
 O         4.362120        -1.654784        -0.612000
 C         2.027011        -1.497055         0.081441
 C         2.559447         0.406652        -0.930462
 O         2.489880         1.116088        -2.152210
 H        -0.836807        -0.637016         0.496473
 H        -0.468228         1.060929        -0.288683
 H        -0.192815        -0.490222        -1.106072
 H         2.010816         1.820308         1.188982
 H         2.062171         0.386666         2.343611
 H         4.312247         1.045849         0.567015
 H         4.538354        -1.752691        -1.559240
 H         1.657339        -2.153936        -0.685863
 H         2.064766        -2.013712         1.042460
 H         3.201306         1.818063        -1.930269
