19
Iteration:  3587charge 0 multiplicity 1
 C        -0.065105         0.304391        -0.187496
 C         1.325249         0.004184        -0.004362
 C         2.111229         0.589115         1.198814
 C         3.337108         0.406177         0.402967
 C         3.237887        -0.896403        -0.417930
 O         4.421857        -1.589003        -0.546258
 C         1.860548        -1.448056         0.049033
 C         2.631370         0.371227        -0.956362
 O         2.594275         1.123576        -2.148873
 H        -0.655812        -0.374963         0.317424
 H        -0.144002         1.337061         0.037323
 H        -0.393223         0.109888        -1.174991
 H         1.773003         1.740274         1.471809
 H         2.044673         0.179384         2.281083
 H         4.400368         0.577160         0.721713
 H         4.453729        -2.063865        -1.304615
 H         1.504327        -2.102480        -0.744981
 H         1.847603        -1.895609         1.083126
 H         2.389729         2.001195        -1.888099
