19
Iteration:  2248
 C        -0.078793         0.226726        -0.301220
 C         1.351510        -0.072943         0.042167
 C         2.057646         0.566341         1.224301
 C         3.337927         0.490768         0.435157
 C         3.231513        -0.820885        -0.383369
 O         4.336250        -1.658340        -0.691776
 C         1.964392        -1.502230         0.105318
 C         2.584962         0.426495        -0.885947
 O         2.590468         1.183301        -2.121107
 H        -0.833994        -0.310932         0.351772
 H        -0.316473         1.348873        -0.201164
 H        -0.321033        -0.042780        -1.353143
 H         1.769685         1.571257         1.572637
 H         2.083095        -0.051505         2.226230
 H         4.309835         0.865104         0.471224
 H         5.250674        -1.333737        -0.630861
 H         1.610562        -2.233868        -0.703817
 H         1.846595        -2.012380         1.070294
 H         3.111227         2.055559        -1.942442
