19
Iteration:  4286
 C        -0.165109         0.215611        -0.209625
 C         1.331176        -0.024496         0.123880
 C         2.076191         0.760910         1.346068
 C         3.344406         0.511336         0.451177
 C         3.139317        -0.839190        -0.339103
 O         4.314641        -1.481844        -0.798041
 C         1.841427        -1.498172         0.049344
 C         2.608159         0.381343        -0.867538
 O         2.889195         0.828379        -2.161314
 H        -0.914798        -0.273228         0.295079
 H        -0.304129         1.197539         0.017798
 H        -0.427366         0.081490        -1.234143
 H         1.739832         1.752115         1.371037
 H         2.085462         0.020470         2.145810
 H         4.394923         0.868444         0.499651
 H         4.596597        -0.922202        -1.654460
 H         1.549345        -2.061627        -0.834527
 H         1.768347        -2.133479         0.934680
 H         2.883285         1.857668        -2.142086
