19
Iteration:  4859
 C        -0.124645         0.243495        -0.274961
 C         1.344853         0.026949         0.096956
 C         2.018521         0.595742         1.266015
 C         3.371005         0.484874         0.507810
 C         3.206033        -0.868914        -0.276030
 O         4.379385        -1.510219        -0.820024
 C         1.823803        -1.433959         0.016461
 C         2.600289         0.438992        -0.853950
 O         2.793896         0.867684        -2.099566
 H        -0.889672         0.324428         0.498768
 H        -0.191749         1.202702        -0.690066
 H        -0.561376        -0.424650        -0.913467
 H         1.765674         1.720946         1.477699
 H         1.719174         0.227013         2.292269
 H         4.362120         0.760066         0.811805
 H         4.606617        -1.231994        -1.757653
 H         1.391708        -1.793962        -0.939727
 H         1.693875        -2.159147         0.849831
 H         3.194021         1.828558        -2.005027
