19
Iteration:  4422
 C        -0.081129         0.337080        -0.180014
 C         1.396937        -0.026605        -0.003165
 C         2.032786         0.622705         1.250619
 C         3.344570         0.502965         0.406040
 C         3.233823        -0.832824        -0.369889
 O         4.433205        -1.578043        -0.543451
 C         1.942225        -1.581077        -0.073315
 C         2.587540         0.363956        -0.871053
 O         2.510881         1.114713        -2.137110
 H        -0.483563         0.596646         0.729747
 H        -0.106996         1.319367        -0.783704
 H        -0.557283        -0.432900        -0.768451
 H         1.720532         1.702040         1.301452
 H         2.026736        -0.080480         2.191715
 H         4.367570         0.881411         0.546782
 H         4.267807        -2.355773        -1.234888
 H         1.468728        -2.084828        -0.955667
 H         1.970963        -2.056087         0.909998
 H         3.469462         1.323254        -2.256927
