19
Iteration:  1660
 C        -0.058275         0.076986        -0.332104
 C         1.396219         0.025074         0.115872
 C         2.122432         0.700153         1.312385
 C         3.440190         0.543669         0.434295
 C         3.216244        -0.821178        -0.331227
 O         4.318102        -1.638648        -0.683889
 C         1.913343        -1.491129        -0.000419
 C         2.614760         0.445905        -0.843776
 O         2.533103         1.055333        -2.114474
 H        -0.727555        -0.429356         0.292038
 H        -0.499859         1.126718        -0.506938
 H        -0.036334        -0.404919        -1.337071
 H         1.600313         1.690915         1.529166
 H         2.058448         0.054662         2.133042
 H         4.481777         0.703917         0.574692
 H         4.687707        -1.307787        -1.556112
 H         1.384952        -1.919762        -0.847141
 H         1.682373        -1.932801         0.989846
 H         2.744317         2.024085        -2.054726
