19
Iteration:  2964
 C        -0.058056         0.273316        -0.334682
 C         1.305207        -0.055767         0.062822
 C         2.071847         0.755984         1.269235
 C         3.335769         0.462445         0.334818
 C         3.212084        -0.860505        -0.327074
 O         4.342703        -1.580171        -0.718462
 C         1.987222        -1.563166         0.119314
 C         2.498008         0.312161        -0.887250
 O         2.680854         1.054593        -2.037012
 H        -0.687648        -0.113841         0.511903
 H        -0.131419         1.360267        -0.297846
 H        -0.390564        -0.130453        -1.232590
 H         1.828366         1.888484         1.140453
 H         2.144557         0.375079         2.367084
 H         4.402265         0.761299         0.357797
 H         4.569708        -1.284419        -1.546985
 H         1.526591        -2.171393        -0.633188
 H         1.999309        -2.090139         1.097703
 H         2.868606         1.941438        -1.824134
