19
Iteration:  2237
 C        -0.126422         0.171829        -0.306774
 C         1.313200         0.004260         0.030785
 C         2.117796         0.535316         1.256741
 C         3.396668         0.458081         0.428032
 C         3.277862        -0.863828        -0.377628
 O         4.362900        -1.729421        -0.650399
 C         1.930374        -1.405078         0.028069
 C         2.591711         0.515091        -0.915445
 O         2.556729         1.157210        -2.104903
 H        -0.837242        -0.468943         0.317134
 H        -0.375653         1.284860        -0.151233
 H        -0.235289        -0.066986        -1.394662
 H         1.930113         1.604087         1.434190
 H         2.024561        -0.180300         2.179352
 H         4.277656         0.834877         0.828494
 H         5.103703        -0.980790        -0.439273
 H         1.409987        -2.122404        -0.691894
 H         2.041512        -1.832844         1.038752
 H         2.663351         2.118220        -2.070385
