19
Iteration:  3334
 C        -0.017541         0.178200        -0.351339
 C         1.399781        -0.045295         0.105872
 C         2.100214         0.758685         1.252158
 C         3.354886         0.571735         0.423826
 C         3.228725        -0.855586        -0.357587
 O         4.268869        -1.721896        -0.695141
 C         1.930936        -1.500359         0.046501
 C         2.630038         0.424963        -0.857659
 O         2.559474         1.109773        -2.043958
 H        -0.783964        -0.127278         0.377326
 H        -0.144267         1.245395        -0.664552
 H        -0.087575        -0.710966        -1.201932
 H         1.753891         1.753742         1.351394
 H         2.247881         0.356701         2.288193
 H         4.380746         0.866077         0.814166
 H         4.195986        -1.905443        -1.567738
 H         1.504923        -1.864362        -0.855428
 H         1.893513        -2.212196         0.864540
 H         2.990896         2.031368        -2.018699
