19
Iteration:  4585
 C        -0.125764         0.298105        -0.220209
 C         1.281514        -0.039218        -0.008439
 C         2.080995         0.607921         1.242215
 C         3.365801         0.581044         0.336314
 C         3.255412        -0.915580        -0.327067
 O         4.402910        -1.613937        -0.683801
 C         1.837421        -1.523269        -0.032043
 C         2.566126         0.390754        -0.853693
 O         2.708133         1.141858        -2.037873
 H        -0.735677        -0.166215         0.664095
 H        -0.647486         1.332205        -0.005009
 H        -0.445205        -0.056716        -1.229202
 H         1.753407         1.715193         1.269506
 H         2.151519         0.113825         2.183778
 H         4.328179         1.040733         0.436701
 H         5.131499        -1.655634        -0.017391
 H         1.343974        -2.010967        -0.955233
 H         1.895894        -2.081035         0.922928
 H         3.044283         0.558593        -2.673633
