19
Iteration:  3458
 C        -0.112756         0.198993        -0.244185
 C         1.341553         0.005561         0.104637
 C         2.064776         0.686778         1.313050
 C         3.369899         0.498095         0.540735
 C         3.212862        -0.786247        -0.295131
 O         4.171071        -1.507281        -0.884256
 C         1.928074        -1.432119         0.050934
 C         2.636813         0.407994        -0.809735
 O         2.858095         0.813742        -2.137063
 H        -0.754384        -0.033705         0.636000
 H        -0.331195         1.271300        -0.512609
 H        -0.226927        -0.416248        -1.203462
 H         1.774813         1.665498         1.324199
 H         1.836240         0.021196         2.150689
 H         4.379243         0.924767         0.600530
 H         4.472004        -1.009262        -1.691539
 H         1.519441        -1.994484        -0.798144
 H         1.712459        -2.045963         0.916094
 H         2.596850         1.785664        -2.303664
