19
Iteration:  4834charge 0 multiplicity 1
 C        -0.101099         0.221252        -0.433791
 C         1.376643         0.076693         0.007949
 C         2.053985         0.655760         1.323255
 C         3.439699         0.476935         0.581026
 C         3.199228        -0.858128        -0.209888
 O         4.234589        -1.489646        -0.873489
 C         1.841770        -1.484271         0.033579
 C         2.692368         0.395213        -0.811949
 O         2.767426         0.879267        -2.063528
 H        -0.828788         0.199971         0.439459
 H        -0.323187         1.194400        -0.841631
 H        -0.510466        -0.542833        -1.089328
 H         1.825099         1.694885         1.646432
 H         1.878480         0.173886         2.334388
 H         4.466431         0.815717         0.800516
 H         4.432263        -1.164171        -1.837003
 H         1.455097        -2.204333        -0.762130
 H         1.957226        -1.998480         1.073460
 H         2.326011         1.818870        -1.957027
