19
Iteration:  4243charge 0 multiplicity 1
 C        -0.116942         0.363191        -0.145031
 C         1.298657        -0.050867         0.003644
 C         2.019631         0.620258         1.218918
 C         3.386586         0.489990         0.505301
 C         3.262567        -0.871733        -0.321033
 O         4.382059        -1.484763        -0.684650
 C         1.894430        -1.527950        -0.008581
 C         2.628006         0.390724        -0.925427
 O         2.717054         0.986834        -2.161993
 H        -0.636689         0.184976         0.734385
 H        -0.209861         1.451329        -0.537154
 H        -0.653278        -0.356795        -0.845205
 H         1.701719         1.668846         1.254939
 H         1.861784         0.016159         2.202029
 H         4.485369         0.776984         0.574646
 H         4.260534        -2.454575        -1.131643
 H         1.540419        -2.141690        -0.843376
 H         1.807493        -2.070900         0.918010
 H         2.524453         1.960852        -2.018955
