19
Iteration:   555charge 0 multiplicity 1
 C        -0.118500         0.219146        -0.076562
 C         1.340796         0.037578         0.100194
 C         2.114190         0.793401         1.238615
 C         3.349580         0.582727         0.403790
 C         3.219412        -0.863015        -0.317218
 O         4.277100        -1.483679        -0.936342
 C         1.888102        -1.449937         0.147638
 C         2.568839         0.356789        -0.886665
 O         2.731051         0.802519        -2.175031
 H        -0.776530        -0.341057         0.697336
 H        -0.334254         1.292562         0.136010
 H        -0.466359         0.005276        -1.047867
 H         1.842288         1.885017         1.192136
 H         1.939303         0.364949         2.283143
 H         4.328848         1.124934         0.406426
 H         4.927954        -1.968673        -0.196702
 H         1.351797        -1.860779        -0.742770
 H         1.852184        -2.212630         1.005695
 H         3.585882         0.519239        -2.583920
