19
Iteration:  3297
 C        -0.127165         0.239501        -0.310859
 C         1.279702        -0.008952         0.039723
 C         2.094305         0.648736         1.193702
 C         3.361568         0.396495         0.428835
 C         3.224224        -0.906111        -0.292440
 O         4.389323        -1.576390        -0.828329
 C         1.878275        -1.441317         0.243329
 C         2.604053         0.370935        -0.867749
 O         2.691306         1.063675        -2.085396
 H        -0.895718         0.238100         0.556672
 H        -0.310781         1.203352        -0.833384
 H        -0.442946        -0.374415        -1.188812
 H         1.919426         1.714598         1.057333
 H         2.134066         0.149586         2.097044
 H         4.331262         0.738952         0.725976
 H         4.883597        -0.939250        -1.280701
 H         1.439809        -2.265181        -0.423299
 H         1.769362        -1.894945         1.254172
 H         2.838052         2.061403        -1.864535
