19
Iteration:    10
 C        -0.059064         0.213090        -0.230803
 C         1.376821        -0.012681         0.116766
 C         2.064421         0.759666         1.245316
 C         3.371965         0.546424         0.319729
 C         3.255623        -0.878835        -0.332282
 O         4.390732        -1.563212        -0.770916
 C         1.915193        -1.467861         0.193119
 C         2.544173         0.395937        -0.907128
 O         2.527849         1.003035        -2.184306
 H        -0.714084        -0.269211         0.622746
 H        -0.237249         1.284004        -0.243205
 H        -0.279778        -0.177936        -1.123696
 H         1.932289         1.775617         1.276524
 H         2.021743         0.496619         2.264934
 H         4.363794         0.867275         0.530920
 H         4.912044        -1.946651        -0.040860
 H         1.395887        -2.118257        -0.456933
 H         2.086944        -2.019130         1.151680
 H         2.919712         0.437357        -2.867595
