19
Iteration:  3007charge 0 multiplicity 1
 C        -0.124038         0.187697        -0.262432
 C         1.414811         0.101985         0.008213
 C         2.058522         0.647116         1.342116
 C         3.355472         0.548776         0.497992
 C         3.239776        -0.799257        -0.285116
 O         4.260843        -1.605699        -0.774480
 C         1.895477        -1.375664        -0.016751
 C         2.650280         0.446671        -0.810574
 O         2.698510         0.840368        -2.151774
 H        -0.463950        -0.716430         0.492175
 H        -0.710958         1.045046         0.116906
 H        -0.356827        -0.300006        -1.207238
 H         1.807335         1.754380         1.501364
 H         1.909771         0.064950         2.226285
 H         4.368219         0.951939         0.636124
 H         4.403610        -1.329062        -1.766261
 H         1.691753        -1.998140        -0.881881
 H         1.723410        -1.964635         0.932866
 H         3.129512         1.676021        -2.214645
