19
Iteration:  4752charge 0 multiplicity 1
 C        -0.090863         0.266544        -0.212845
 C         1.363500         0.079136         0.026811
 C         2.043208         0.661414         1.316597
 C         3.353424         0.386090         0.443485
 C         3.201743        -0.943681        -0.420874
 O         4.453150        -1.573914        -0.546271
 C         1.843186        -1.451927        -0.047054
 C         2.623274         0.399429        -0.895404
 O         2.589787         1.083610        -2.165908
 H        -0.618842        -0.542959         0.340269
 H        -0.501563         1.293935         0.239258
 H        -0.389567         0.438506        -1.346443
 H         1.790409         1.688905         1.387574
 H         2.064033         0.136101         2.191277
 H         4.345417         0.821597         0.539809
 H         4.561113        -2.252318        -1.329602
 H         1.478065        -1.819828        -1.019233
 H         1.733331        -2.235547         0.751482
 H         3.533816         1.583656        -2.186045
