19
Iteration:  1930charge 0 multiplicity 1
 C        -0.090094         0.320909        -0.218167
 C         1.314534        -0.062576         0.040217
 C         2.004178         0.682491         1.186219
 C         3.319504         0.409920         0.513393
 C         3.250837        -0.897181        -0.366835
 O         4.499913        -1.425688        -0.738793
 C         1.920524        -1.563256         0.026003
 C         2.547188         0.312354        -0.864571
 O         2.608194         1.063701        -2.048240
 H        -0.550484         0.112658         0.783122
 H        -0.078672         1.377692        -0.511417
 H        -0.739522        -0.162861        -1.003064
 H         1.759113         1.763210         1.230401
 H         1.763243         0.346479         2.272243
 H         4.359806         0.771861         0.731615
 H         4.624000        -1.338593        -1.811394
 H         1.395988        -2.234320        -0.763694
 H         1.793917        -2.246380         0.943337
 H         3.478033         1.001319        -2.372277
