19
Iteration:  4509
 C        -0.106712         0.204522        -0.380982
 C         1.311214        -0.001172         0.129356
 C         2.086587         0.668360         1.266872
 C         3.290742         0.548080         0.411807
 C         3.275659        -0.838783        -0.252814
 O         4.340748        -1.510842        -0.901024
 C         1.943665        -1.485862         0.173596
 C         2.547068         0.358997        -0.819292
 O         2.817732         1.053179        -2.022273
 H        -0.888610        -0.404234         0.054976
 H        -0.472212         1.274443        -0.134654
 H        -0.174239         0.113422        -1.459165
 H         1.699753         1.746067         1.500916
 H         1.955247         0.271773         2.379424
 H         4.147682         1.183996         0.344951
 H         3.925194        -2.387933        -1.052225
 H         1.544848        -2.010951        -0.788558
 H         1.670271        -2.178651         1.000982
 H         2.626147         0.305147        -2.714388
