19
Iteration:  1165
 C        -0.045562         0.326827        -0.240529
 C         1.317946        -0.115546         0.090502
 C         2.034061         0.663097         1.248877
 C         3.360685         0.617972         0.408523
 C         3.330489        -0.856161        -0.206544
 O         4.460282        -1.452772        -0.866581
 C         2.004495        -1.483407         0.202338
 C         2.438797         0.240907        -0.839984
 O         2.453206         0.829789        -2.176975
 H        -0.668680         0.219053         0.580522
 H        -0.006491         1.398401        -0.614805
 H        -0.436372        -0.178337        -1.173546
 H         1.447616         1.728904         1.172755
 H         2.270486         0.362071         2.258389
 H         4.230432         1.276065         0.251701
 H         5.062880        -0.721689        -1.459673
 H         1.655392        -2.123261        -0.653293
 H         1.957029        -1.889481         1.210523
 H         3.306109         1.185916        -2.135764
