19
Iteration:  1760
 C        -0.212509         0.143866        -0.221589
 C         1.315768         0.006402         0.043019
 C         2.128249         0.620121         1.341610
 C         3.413479         0.480722         0.460595
 C         3.215419        -0.797962        -0.329194
 O         4.323422        -1.494425        -0.792512
 C         1.842554        -1.474695        -0.005627
 C         2.586422         0.497389        -0.860649
 O         2.757590         0.918766        -2.155895
 H        -0.877114        -0.207541         0.620958
 H        -0.410576         1.253332        -0.437627
 H        -0.495998        -0.479035        -1.042879
 H         1.802881         1.634065         1.712093
 H         2.113995        -0.055906         2.207656
 H         4.578420         0.860353         0.411519
 H         5.117586        -1.201653        -0.361161
 H         1.503150        -1.846244        -0.977076
 H         1.731317        -2.265656         0.782147
 H         2.901228         1.835761        -2.188680
