19
Iteration:   537charge 0 multiplicity 1
 C        -0.131563         0.234051         0.010120
 C         1.321394        -0.008914         0.101913
 C         2.077579         0.833818         1.175852
 C         3.352545         0.502611         0.449768
 C         3.162443        -0.835078        -0.313986
 O         4.220061        -1.420209        -0.925078
 C         1.947047        -1.485413         0.132139
 C         2.616361         0.378458        -0.928715
 O         2.799290         0.844140        -2.248631
 H        -0.560378        -0.559484         0.647195
 H        -0.424476         1.165533         0.435325
 H        -0.531701         0.123527        -1.013670
 H         1.659399         1.911907         1.040043
 H         1.998202         0.434471         2.187807
 H         4.415152         0.662197         0.762453
 H         4.694106        -2.166520        -0.264577
 H         1.592299        -2.304087        -0.430011
 H         1.846175        -1.789540         1.163600
 H         3.582516         0.343766        -2.595345
