19
Iteration:  1306charge 0 multiplicity 1
 C        -0.141641         0.124596        -0.173311
 C         1.331316        -0.022270         0.117449
 C         2.060622         0.678314         1.244014
 C         3.435575         0.588474         0.404462
 C         3.287545        -0.774741        -0.241508
 O         4.327277        -1.385301        -0.931332
 C         1.942907        -1.447502         0.112658
 C         2.522635         0.353234        -0.830341
 O         2.671243         0.774936        -2.161146
 H        -0.756886        -0.334980         0.571455
 H        -0.358855         1.262038        -0.342429
 H        -0.325332        -0.269849        -1.277560
 H         1.861914         1.789078         1.237954
 H         1.983833         0.367273         2.275378
 H         4.354919         1.015720         0.615567
 H         4.946937        -1.532875        -0.300245
 H         1.706819        -2.003267        -0.804543
 H         1.864395        -2.060795         0.993782
 H         2.214194         1.556972        -2.401362
