19
Iteration:  3298
 C        -0.121117         0.236741        -0.313189
 C         1.276336        -0.007715         0.037652
 C         2.103926         0.654673         1.194056
 C         3.363023         0.395481         0.426747
 C         3.228069        -0.907486        -0.300327
 O         4.389416        -1.578714        -0.823896
 C         1.871530        -1.442399         0.243301
 C         2.601540         0.377008        -0.868779
 O         2.685063         1.063680        -2.076186
 H        -0.892779         0.211668         0.565694
 H        -0.309058         1.187766        -0.867312
 H        -0.452503        -0.424365        -1.242145
 H         1.924002         1.691205         1.098243
 H         2.164840         0.182838         2.130056
 H         4.336267         0.798733         0.729304
 H         4.860294        -0.983482        -1.283373
 H         1.416933        -2.232897        -0.432697
 H         1.754980        -1.908961         1.233376
 H         2.861345         2.062941        -1.867553
