19
Iteration:  3844charge 0 multiplicity 1
 C        -0.082355         0.257370        -0.308582
 C         1.290568        -0.016205         0.151726
 C         2.154044         0.637754         1.265470
 C         3.388727         0.440062         0.412339
 C         3.147486        -0.827739        -0.304482
 O         4.315476        -1.430649        -0.776438
 C         1.873269        -1.515170         0.135265
 C         2.492258         0.412608        -0.842567
 O         2.834888         0.913153        -2.132200
 H        -0.814999         0.072046         0.360003
 H        -0.078880         1.323875        -0.655463
 H        -0.467660        -0.460872        -1.058123
 H         1.676099         1.678038         1.254747
 H         1.934341         0.244293         2.290324
 H         4.400835         0.762912         0.596239
 H         4.171999        -1.640384        -1.805186
 H         1.590212        -2.012070        -0.809477
 H         1.758658        -2.154328         1.018975
 H         2.995925         1.829361        -2.061621
