19
Iteration:   926
 C        -0.180995         0.206158        -0.094633
 C         1.332859        -0.019373         0.099847
 C         2.155662         0.751309         1.244756
 C         3.340482         0.555862         0.339517
 C         3.189254        -0.823378        -0.344689
 O         4.316537        -1.580809        -0.806768
 C         1.972267        -1.484157         0.094616
 C         2.633209         0.407927        -0.907139
 O         2.711468         0.867561        -2.157619
 H        -0.897391        -0.201578         0.639525
 H        -0.447738         1.263388        -0.160278
 H        -0.484640        -0.147711        -1.076495
 H         1.812931         1.758239         1.171581
 H         2.039748         0.510129         2.339372
 H         4.321617         0.948773         0.635280
 H         5.174013        -1.070773        -0.575598
 H         1.611636        -2.134740        -0.736669
 H         1.977089        -1.934479         1.038935
 H         1.871602         1.308137        -2.344045
