19
Iteration:   853
 C        -0.101166         0.181935        -0.179389
 C         1.355412        -0.058414         0.091375
 C         2.132744         0.800142         1.146575
 C         3.344280         0.491844         0.304185
 C         3.271965        -0.916576        -0.305998
 O         4.377861        -1.695717        -0.674868
 C         1.985408        -1.455692         0.129945
 C         2.522267         0.246880        -0.985102
 O         2.492388         1.195554        -2.078672
 H        -0.755601        -0.226518         0.731286
 H        -0.413623         1.193526        -0.348654
 H        -0.413344        -0.393137        -1.047991
 H         1.852978         1.848425         1.084048
 H         2.270266         0.628957         2.240204
 H         4.346662         1.043023         0.094542
 H         5.105771        -1.100806        -0.722745
 H         1.425278        -2.059545        -0.548086
 H         1.903096        -1.707862         1.254115
 H         3.349156         1.316169        -2.403098
