19
Iteration:   867
 C        -0.155126         0.098772        -0.109894
 C         1.339145        -0.041907         0.107677
 C         2.186509         0.813706         1.152007
 C         3.379568         0.520493         0.251697
 C         3.220723        -0.887552        -0.431443
 O         4.336186        -1.716993        -0.605920
 C         1.960859        -1.523056         0.184196
 C         2.534574         0.419355        -0.968968
 O         2.540371         1.172924        -2.140365
 H        -0.809804        -0.293405         0.650073
 H        -0.242338         1.232945        -0.217208
 H        -0.494342        -0.392500        -1.141673
 H         1.935031         1.901280         0.907074
 H         2.038599         0.520767         2.125768
 H         4.294288         1.107491         0.418142
 H         5.194281        -1.159829        -0.610944
 H         1.579350        -2.236131        -0.577279
 H         2.090855        -2.229882         1.086128
 H         3.516765         1.481329        -2.227142
