19
Iteration:  3843charge 0 multiplicity 1
 C        -0.068343         0.259789        -0.312698
 C         1.287454        -0.020547         0.153476
 C         2.149799         0.648636         1.267342
 C         3.380254         0.435735         0.416929
 C         3.156288        -0.834123        -0.304565
 O         4.312669        -1.429732        -0.779285
 C         1.868451        -1.516370         0.140813
 C         2.496004         0.407090        -0.850576
 O         2.827491         0.921086        -2.130701
 H        -0.864034         0.051717         0.367276
 H        -0.069860         1.309257        -0.658762
 H        -0.472043        -0.468044        -1.048760
 H         1.735280         1.651839         1.221722
 H         1.957344         0.227488         2.255172
 H         4.414327         0.760447         0.594468
 H         4.172434        -1.635790        -1.764166
 H         1.606627        -2.012131        -0.816087
 H         1.756086        -2.137077         1.038134
 H         3.021926         1.855639        -2.055654
