19
Iteration:   760charge 0 multiplicity 1
 C        -0.141538         0.317352        -0.171764
 C         1.354051         0.017806         0.089771
 C         2.114535         0.717915         1.221806
 C         3.311307         0.509635         0.441844
 C         3.266785        -0.826987        -0.237782
 O         4.369766        -1.337272        -0.943200
 C         1.912282        -1.505641         0.202371
 C         2.602967         0.337031        -0.857073
 O         2.656936         0.799736        -2.192138
 H        -0.722064        -0.119480         0.605643
 H        -0.326230         1.427992        -0.123159
 H        -0.513000        -0.053013        -1.186704
 H         1.752763         1.764216         1.433149
 H         2.047888         0.140468         2.204174
 H         4.309632         0.918334         0.523105
 H         4.656179        -2.069599        -0.520379
 H         1.501889        -2.078500        -0.695564
 H         1.910795        -2.050444         1.119188
 H         2.648019        -0.045179        -2.775469
