19
Iteration:  3927charge 0 multiplicity 1
 C        -0.173509         0.312411        -0.200774
 C         1.282020        -0.023381         0.162860
 C         2.104968         0.671361         1.267537
 C         3.298550         0.496950         0.361373
 C         3.184279        -0.944829        -0.321024
 O         4.457409        -1.466692        -0.695323
 C         1.829860        -1.492279         0.044925
 C         2.618030         0.374174        -0.907985
 O         2.798609         0.909821        -2.164066
 H        -0.773230        -0.283001         0.461151
 H        -0.461409         1.279046         0.036700
 H        -0.208121         0.192110        -1.263355
 H         1.749337         1.783174         1.436486
 H         1.870592         0.052102         2.190918
 H         4.280856         1.003923         0.344447
 H         4.412593        -1.547735        -1.753006
 H         1.342519        -2.010991        -0.815620
 H         1.677326        -2.117389         0.941315
 H         3.026525         1.848429        -2.011843
