19
Iteration:  4107
 C        -0.145280         0.163945        -0.232276
 C         1.313052         0.092018         0.070779
 C         2.044016         0.659796         1.315560
 C         3.369526         0.544934         0.539630
 C         3.176073        -0.845940        -0.347128
 O         4.313153        -1.475271        -0.848182
 C         1.811611        -1.418511         0.057856
 C         2.650450         0.459241        -0.818937
 O         2.898752         0.751380        -2.178092
 H        -0.762653        -0.575988         0.405574
 H        -0.394203         1.172335         0.017900
 H        -0.417076         0.111440        -1.271229
 H         1.583175         1.696339         1.622550
 H         2.042963         0.181165         2.385069
 H         4.378372         0.696432         0.878782
 H         4.521720        -1.274151        -1.871064
 H         1.311333        -2.046249        -0.700235
 H         1.961885        -1.872316         1.048228
 H         2.495017         1.650809        -2.427241
