19
Iteration:   767
 C        -0.143919         0.302683        -0.231381
 C         1.329255        -0.024636         0.054892
 C         2.128207         0.702057         1.279601
 C         3.398272         0.611506         0.404685
 C         3.259051        -0.849682        -0.227424
 O         4.386004        -1.333546        -0.948662
 C         1.908905        -1.486237         0.181819
 C         2.566836         0.293341        -0.851915
 O         2.605725         0.812835        -2.156651
 H        -0.705171         0.032427         0.691615
 H        -0.273770         1.392948        -0.205562
 H        -0.453578        -0.054693        -1.263022
 H         1.910559         1.806308         1.530306
 H         2.167930         0.101783         2.156304
 H         4.507459         0.787550         0.684009
 H         4.626271        -2.162392        -0.365155
 H         1.509257        -2.123771        -0.564838
 H         1.522461        -1.988594         1.145154
 H         2.697187        -0.008396        -2.761292
