19
Iteration:  1368charge 0 multiplicity 1
 C        -0.121622         0.245297        -0.190312
 C         1.299941        -0.076809         0.051166
 C         2.018273         0.684987         1.259875
 C         3.368231         0.574952         0.421664
 C         3.263119        -0.866779        -0.277055
 O         4.463877        -1.334655        -0.821407
 C         1.970851        -1.558671         0.165239
 C         2.541159         0.350784        -0.868670
 O         2.660041         0.822846        -2.193478
 H        -0.695839         0.079730         0.713598
 H        -0.143967         1.309458        -0.323908
 H        -0.601226        -0.188710        -1.043450
 H         1.799980         1.703606         1.371757
 H         1.989167         0.168319         2.280513
 H         4.344506         1.129037         0.426547
 H         4.177254        -1.695850        -1.683393
 H         1.579451        -2.174611        -0.655441
 H         1.870238        -2.085903         1.169133
 H         2.361652         1.723632        -2.066855
