19
Iteration:    78charge 0 multiplicity 1
 C        -0.053780         0.292650        -0.293658
 C         1.380063        -0.030340         0.174214
 C         2.155846         0.807545         1.216977
 C         3.350439         0.539366         0.360538
 C         3.215082        -0.901935        -0.385952
 O         4.357704        -1.610097        -0.739238
 C         1.964127        -1.499613         0.200859
 C         2.613358         0.327382        -0.916306
 O         2.516352         0.940806        -2.186240
 H        -0.788438        -0.464372        -0.067835
 H        -0.367853         1.219190         0.182853
 H        -0.123920         0.454589        -1.364259
 H         1.984490         1.837421         1.080000
 H         2.001185         0.620198         2.239197
 H         4.438704         0.934746         0.411140
 H         5.007066        -1.541449         0.156496
 H         1.359005        -2.191611        -0.439581
 H         2.144619        -1.915993         1.183243
 H         1.594241         1.355434        -2.166357
