19
Iteration:  2655
 C        -0.047573         0.186657        -0.314707
 C         1.322444        -0.009361         0.072334
 C         2.157507         0.718244         1.302564
 C         3.348456         0.488965         0.456810
 C         3.208896        -0.802767        -0.312212
 O         4.340545        -1.499598        -0.739844
 C         1.861387        -1.494368        -0.071834
 C         2.646191         0.340114        -0.797627
 O         2.612527         1.022491        -2.046773
 H        -0.744597        -0.381257         0.486551
 H        -0.441445         1.234916        -0.232985
 H        -0.214474        -0.318493        -1.258095
 H         1.784149         1.784583         1.234639
 H         2.004133         0.494199         2.371864
 H         4.437119         0.855962         0.528841
 H         3.995761        -2.255127        -1.349122
 H         1.458969        -1.897881        -1.029442
 H         1.677419        -2.157636         0.772955
 H         3.561022         1.180132        -2.260154
