19
Iteration:    34charge 0 multiplicity 1
 C        -0.062877         0.256078        -0.318818
 C         1.405378         0.000341         0.051453
 C         2.197178         0.760486         1.202686
 C         3.425670         0.549941         0.376865
 C         3.271958        -0.877299        -0.368233
 O         4.360925        -1.606386        -0.659941
 C         1.961191        -1.446974         0.172802
 C         2.604319         0.324176        -0.919770
 O         2.304106         0.955584        -2.123246
 H        -0.725168        -0.482121         0.106381
 H        -0.401685         1.260357        -0.060509
 H        -0.113679         0.180955        -1.417046
 H         1.891781         1.795242         1.342179
 H         2.270981         0.290052         2.173037
 H         4.406715         1.047545         0.466127
 H         4.614788        -2.028381         0.194498
 H         1.576906        -2.162850        -0.573843
 H         1.953591        -1.890325         1.165958
 H         2.975539         1.626540        -2.537679
