19
Iteration:  2831charge 0 multiplicity 1
 C        -0.113848         0.328868        -0.160606
 C         1.329285         0.008965         0.035987
 C         1.960405         0.700702         1.190267
 C         3.290178         0.375551         0.518180
 C         3.194079        -0.950026        -0.336699
 O         4.445278        -1.456991        -0.810332
 C         1.906322        -1.558042         0.160545
 C         2.648691         0.336065        -0.936612
 O         2.758526         0.998649        -2.142225
 H        -0.609177        -0.473042         0.396182
 H        -0.441179         1.259767         0.162392
 H        -0.348194         0.342993        -1.138644
 H         1.773431         1.838696         0.959451
 H         1.622525         0.311007         2.241209
 H         4.303022         0.685759         0.698852
 H         4.497533        -1.267721        -1.751626
 H         1.274344        -2.155975        -0.499173
 H         1.946393        -1.993481         1.177197
 H         2.882064         1.902779        -1.964198
