19
Iteration:  1513charge 0 multiplicity 1
 C        -0.128376         0.299638        -0.231385
 C         1.344743        -0.116133         0.131089
 C         1.998319         0.627909         1.306977
 C         3.324679         0.510800         0.439967
 C         3.242767        -0.851182        -0.359207
 O         4.387496        -1.350138        -0.937484
 C         1.968153        -1.521888         0.134443
 C         2.580778         0.383509        -0.808970
 O         2.679784         0.828343        -2.164148
 H        -0.829143         0.267939         0.553072
 H        -0.106038         1.372632        -0.560921
 H        -0.511884        -0.159444        -1.183456
 H         1.725091         1.667095         1.237722
 H         1.978202         0.338551         2.403488
 H         4.396818         0.905809         0.513860
 H         5.157148        -1.433855        -0.199975
 H         1.605265        -2.221611        -0.673077
 H         1.940062        -2.090637         1.103583
 H         2.330676         1.732275        -2.236639
