19
Iteration:  3389
 C        -0.119236         0.330004        -0.170618
 C         1.328349        -0.111228         0.074322
 C         2.074961         0.662503         1.297190
 C         3.392213         0.452676         0.322039
 C         3.151545        -0.951596        -0.391558
 O         4.459949        -1.399320        -0.654216
 C         1.777277        -1.564618         0.044970
 C         2.548166         0.378327        -0.899280
 O         2.773531         1.008834        -2.122670
 H        -0.961046        -0.160411         0.303678
 H        -0.253656         1.411190         0.076512
 H        -0.161855         0.416284        -1.387277
 H         1.819532         1.598995         1.178516
 H         2.174481         0.240977         2.234926
 H         4.398700         0.891460         0.331174
 H         4.489627        -2.158053        -1.179627
 H         1.303401        -2.208531        -0.655512
 H         1.750698        -2.080841         1.014445
 H         2.606676         1.970945        -2.111980
