19
Iteration:   398
 C        -0.031261         0.277963        -0.186769
 C         1.416415        -0.017960         0.060811
 C         2.118846         0.782160         1.217553
 C         3.418420         0.499546         0.369796
 C         3.224021        -0.887474        -0.386794
 O         4.333650        -1.573262        -0.791339
 C         1.935606        -1.500660         0.139276
 C         2.558932         0.353689        -0.882480
 O         2.510640         1.041412        -2.098958
 H        -0.567657         0.508800         0.695089
 H        -0.202174         1.153877        -0.883201
 H        -0.558972        -0.635882        -0.712131
 H         1.931039         1.838103         1.176914
 H         1.911234         0.349127         2.321134
 H         4.481252         0.895033         0.380465
 H         4.836981        -1.962129         0.076717
 H         1.354407        -2.299300        -0.480638
 H         1.873783        -1.788678         1.181894
 H         2.472901         0.398738        -2.798552
