19
Iteration:  3531charge 0 multiplicity 1
 C        -0.082326         0.282128        -0.226949
 C         1.316936        -0.041414         0.077202
 C         2.073246         0.640705         1.222421
 C         3.419293         0.495318         0.407849
 C         3.245265        -0.885729        -0.373421
 O         4.385084        -1.604515        -0.642700
 C         1.858089        -1.512343         0.039518
 C         2.639880         0.417926        -0.876825
 O         2.584289         1.105016        -2.124409
 H        -0.714770        -0.011798         0.551522
 H        -0.145055         1.331783        -0.375079
 H        -0.240069        -0.128147        -1.178632
 H         1.687759         1.763778         1.178428
 H         2.048195         0.013347         2.130674
 H         4.385011         0.974555         0.562539
 H         4.105765        -2.297742        -1.245449
 H         1.502966        -2.142800        -0.777417
 H         1.833955        -2.183139         0.959518
 H         3.116377         1.943103        -2.069828
