19
Iteration:  4782charge 0 multiplicity 1
 C        -0.094643         0.371646        -0.338944
 C         1.318954        -0.021925         0.011585
 C         2.051908         0.622835         1.199670
 C         3.362765         0.468882         0.418808
 C         3.180391        -0.900427        -0.283298
 O         4.381776        -1.509656        -0.745614
 C         1.895204        -1.513642         0.138183
 C         2.634699         0.328724        -0.853043
 O         2.702724         1.020171        -2.043238
 H        -0.852628        -0.315611         0.110628
 H        -0.275623         1.426331        -0.087630
 H        -0.418820         0.315896        -1.372897
 H         1.713192         1.764414         1.319716
 H         2.265794         0.019368         2.162732
 H         4.349031         0.753374         0.778572
 H         4.382209        -1.990403        -1.620847
 H         1.530953        -2.180987        -0.658902
 H         1.827943        -2.150606         0.986128
 H         2.673743         1.944768        -1.812144
