19
Iteration:  2525charge 0 multiplicity 1
 C        -0.126736         0.284926        -0.208758
 C         1.302240        -0.020995         0.002828
 C         2.017404         0.504146         1.260705
 C         3.301410         0.474175         0.476536
 C         3.248723        -0.861302        -0.369719
 O         4.397002        -1.497224        -0.649468
 C         1.994959        -1.488596         0.050232
 C         2.624764         0.384042        -0.933357
 O         2.699679         1.049087        -2.167615
 H        -0.645289         0.466239         0.814115
 H        -0.075654         1.340781        -0.617298
 H        -0.722221        -0.307761        -0.898319
 H         1.800393         1.577302         1.378691
 H         1.840301        -0.061462         2.248925
 H         4.194723         0.978080         0.727048
 H         4.488700        -2.083243        -1.527300
 H         1.392631        -2.007195        -0.723367
 H         1.941801        -2.068007         1.040759
 H         2.626352         2.045169        -2.017051
