19
Iteration:  3166charge 0 multiplicity 1
 C        -0.082661         0.333300        -0.297849
 C         1.302469        -0.134630         0.048246
 C         2.035855         0.701812         1.133846
 C         3.337912         0.497446         0.377314
 C         3.292568        -0.871249        -0.360405
 O         4.403103        -1.573851        -0.764242
 C         1.957514        -1.514580         0.193640
 C         2.523844         0.311476        -0.866869
 O         2.699290         1.059116        -1.967939
 H        -0.987053        -0.050705         0.273072
 H        -0.025995         1.469521        -0.282361
 H        -0.426928        -0.013570        -1.372875
 H         1.728339         1.708763         1.214637
 H         1.842383         0.493923         2.200213
 H         4.098491         1.263827         0.296694
 H         4.154002        -2.314867        -1.450169
 H         1.476019        -2.170204        -0.603379
 H         2.043319        -2.012723         1.135248
 H         2.792048         2.000906        -1.730275
