19
Iteration:  2983
 C        -0.154115         0.211060        -0.246873
 C         1.392210        -0.009555         0.046808
 C         2.016081         0.667405         1.203620
 C         3.384018         0.559738         0.556504
 C         3.270341        -0.862885        -0.329349
 O         4.335197        -1.688868        -0.793485
 C         1.924855        -1.433777         0.121845
 C         2.677980         0.428697        -0.844881
 O         2.617308         1.003246        -2.171766
 H        -1.026527        -0.317192         0.408917
 H        -0.327429         1.279345        -0.150885
 H        -0.206370        -0.214719        -1.329638
 H         1.717631         1.711175         1.379860
 H         1.952178         0.180026         2.112288
 H         4.334754         1.128303         0.881104
 H         4.565519        -1.340543        -1.581946
 H         1.428071        -2.076252        -0.655608
 H         1.823636        -1.912187         1.127312
 H         3.098029         1.824066        -2.144518
