19
Iteration:  3519charge 0 multiplicity 1
 C        -0.119513         0.311616        -0.255594
 C         1.368086        -0.041962        -0.032426
 C         2.061956         0.656259         1.183869
 C         3.375879         0.455305         0.479650
 C         3.187186        -0.900957        -0.312007
 O         4.387427        -1.550462        -0.757257
 C         1.920689        -1.539916         0.128108
 C         2.634073         0.406910        -0.873165
 O         2.627180         1.069258        -2.098664
 H        -0.774004        -0.001381         0.530423
 H        -0.253288         1.347150        -0.430977
 H        -0.568061        -0.193816        -1.030872
 H         1.887586         1.790603         1.463288
 H         1.971159         0.294024         2.226269
 H         4.376475         0.733041         0.711321
 H         4.166336        -2.207163        -1.574669
 H         1.540576        -2.255408        -0.592241
 H         1.850875        -1.848597         1.212992
 H         3.165281         1.901981        -1.949115
