19
Iteration:   232
 C         0.034011         0.375507        -0.369266
 C         1.385358        -0.006747         0.029910
 C         2.148910         0.735293         1.222929
 C         3.459712         0.536140         0.385090
 C         3.235295        -0.946912        -0.332305
 O         4.407776        -1.619546        -0.767244
 C         1.909393        -1.487784         0.240241
 C         2.620751         0.279744        -0.909221
 O         2.228560         1.048258        -2.047783
 H        -0.630201         0.497938         0.523768
 H         0.102324         1.348623        -0.856333
 H        -0.405989        -0.346756        -1.143063
 H         2.023706         1.762356         1.305929
 H         2.089639         0.244106         2.211754
 H         4.477033         0.882280         0.431548
 H         4.964520        -1.885967         0.108947
 H         1.583377        -2.315747        -0.497105
 H         1.841599        -1.894487         1.201395
 H         2.971119         1.053769        -2.761141
