19
Iteration:  4348
 C        -0.091199         0.248560        -0.303037
 C         1.354272        -0.013204         0.112479
 C         2.054339         0.739872         1.225779
 C         3.365695         0.506103         0.490755
 C         3.201729        -0.852020        -0.309587
 O         4.314364        -1.609830        -0.837111
 C         1.914152        -1.507855         0.136133
 C         2.648977         0.371474        -0.835585
 O         2.746917         0.978831        -2.106963
 H        -0.806001        -0.455864         0.390298
 H        -0.519654         1.329975        -0.183238
 H        -0.026463        -0.013121        -1.387208
 H         1.516071         1.748341         1.287638
 H         1.710290         0.393986         2.207872
 H         4.364125         0.876799         0.796906
 H         4.482960        -1.339799        -1.798498
 H         1.616149        -2.217250        -0.655853
 H         1.759504        -2.025593         1.117525
 H         2.291400         1.904840        -2.175091
