19
Iteration:  2430
 C        -0.086956         0.209602        -0.371904
 C         1.360594        -0.066147         0.032420
 C         2.097436         0.606227         1.307875
 C         3.377492         0.640547         0.405116
 C         3.249702        -0.819504        -0.243561
 O         4.329222        -1.642516        -0.752736
 C         1.943226        -1.496751         0.043696
 C         2.537519         0.425239        -0.818562
 O         2.606643         1.072317        -2.047977
 H        -0.808683        -0.540195        -0.019214
 H        -0.443936         1.267935        -0.031166
 H        -0.161549         0.139672        -1.471572
 H         1.752943         1.660128         1.488367
 H         2.085012        -0.058278         2.140357
 H         4.339172         1.059325         0.718165
 H         4.362084        -1.693249        -1.644810
 H         1.695165        -1.977934        -0.869569
 H         1.729271        -2.170184         0.856724
 H         3.459722         1.475134        -1.913862
