19
Iteration:  2301charge 0 multiplicity 1
 C        -0.168781         0.224273        -0.308868
 C         1.330492         0.030352         0.026440
 C         2.006558         0.660256         1.270658
 C         3.366190         0.380452         0.616329
 C         3.198113        -0.902949        -0.295517
 O         4.375425        -1.465440        -0.916333
 C         1.910229        -1.504425         0.052283
 C         2.635072         0.377306        -0.843182
 O         2.728027         0.967101        -2.095624
 H        -0.696570         0.279920         0.683486
 H        -0.366257         1.053001        -0.803811
 H        -0.613397        -0.574060        -0.917336
 H         2.030229         1.757539         1.352548
 H         1.772486         0.326891         2.308224
 H         4.340689         0.679994         0.813579
 H         4.977116        -0.658214        -1.094102
 H         1.523910        -2.143900        -0.777917
 H         1.911441        -1.891867         1.085513
 H         2.866185         1.980114        -1.986652
