19
Iteration:  4407
 C        -0.066884         0.350940        -0.245486
 C         1.307141        -0.064743         0.001830
 C         2.121874         0.538014         1.272767
 C         3.316119         0.461159         0.435003
 C         3.253003        -0.920053        -0.383932
 O         4.492842        -1.539817        -0.580907
 C         1.881357        -1.441868         0.034695
 C         2.610165         0.426352        -0.981883
 O         2.532024         1.094990        -2.143751
 H        -0.598546         0.349426         0.767215
 H        -0.159266         1.268296        -0.717669
 H        -0.725767        -0.360062        -0.739490
 H         1.720254         1.627015         1.401723
 H         2.044589         0.062292         2.350764
 H         4.300512         0.848345         0.696123
 H         4.278510        -2.385070        -0.916915
 H         1.519258        -2.127113        -0.789886
 H         1.682686        -2.022885         0.948134
 H         3.204351         1.692418        -2.307417
