19
Iteration:  3506charge 0 multiplicity 1
 C        -0.139880         0.289085        -0.312041
 C         1.320394         0.008602         0.007169
 C         2.051365         0.680801         1.260939
 C         3.348855         0.381844         0.443621
 C         3.266183        -0.906645        -0.339666
 O         4.379180        -1.493421        -0.831996
 C         1.917054        -1.447245         0.184745
 C         2.584707         0.288233        -0.868419
 O         2.711215         1.020006        -2.054653
 H        -0.518315         0.226382         0.751491
 H        -0.286819         1.365783        -0.421183
 H        -0.495562        -0.195139        -1.109175
 H         1.770738         1.731648         1.081884
 H         1.803912         0.158527         2.179728
 H         4.312922         0.790585         0.683432
 H         4.110916        -1.728169        -1.652966
 H         1.349779        -2.210285        -0.411048
 H         1.944515        -1.939653         1.170100
 H         3.117277         1.863662        -1.908186
