19
Iteration:  2106charge 0 multiplicity 1
 C        -0.158165         0.214141        -0.234286
 C         1.350971         0.041308        -0.013792
 C         2.036734         0.670961         1.285742
 C         3.404872         0.482050         0.656785
 C         3.260483        -0.835758        -0.290959
 O         4.380330        -1.479014        -0.966722
 C         1.901392        -1.468959        -0.075029
 C         2.680408         0.431451        -0.741989
 O         2.611180         0.941816        -2.077244
 H        -0.694931         0.275477         0.737172
 H        -0.301001         1.290633        -0.585915
 H        -0.638226        -0.568808        -0.860504
 H         1.788472         1.707894         1.435812
 H         1.880538         0.098122         2.232232
 H         4.240580         1.037715         0.867579
 H         4.317706        -2.358485        -0.834763
 H         1.478001        -1.982959        -0.975029
 H         1.545761        -2.021404         0.768361
 H         3.536637         0.731565        -2.427553
