19
Iteration:  4538charge 0 multiplicity 1
 C        -0.123142         0.202407        -0.263104
 C         1.356071         0.005965         0.001164
 C         2.035216         0.705676         1.236199
 C         3.338844         0.490619         0.496855
 C         3.223399        -0.854942        -0.331716
 O         4.390532        -1.512946        -0.790808
 C         1.888148        -1.528248         0.077435
 C         2.670368         0.440750        -0.806067
 O         2.737030         1.073406        -2.109195
 H        -0.809897        -0.551799         0.305856
 H        -0.447767         1.086404         0.303963
 H        -0.422865         0.368482        -1.316757
 H         1.746044         1.778763         1.260466
 H         1.861668         0.163873         2.084639
 H         4.320391         0.978131         0.615782
 H         4.097811        -2.510836        -0.661489
 H         1.517140        -2.037985        -0.795299
 H         1.674697        -1.996268         1.036693
 H         2.502834         0.250326        -2.667928
