19
Iteration:  3690charge 0 multiplicity 1
 C        -0.163154         0.315172        -0.193435
 C         1.258680        -0.015524         0.047534
 C         2.040557         0.682727         1.256792
 C         3.320815         0.523114         0.497165
 C         3.237884        -0.885239        -0.262370
 O         4.326113        -1.485972        -0.893654
 C         1.940324        -1.509674         0.024798
 C         2.550336         0.387838        -0.763919
 O         2.912455         0.822074        -2.118799
 H        -0.708715         0.078031         0.599717
 H        -0.466041         1.359412        -0.378372
 H        -0.434577        -0.264572        -1.139334
 H         1.851450         1.827765         1.523571
 H         2.025064         0.200897         2.321099
 H         4.288895         1.014249         0.659278
 H         4.486399        -1.022833        -1.812346
 H         1.553778        -2.089756        -0.835621
 H         1.684565        -2.168240         0.837486
 H         2.421664         1.724232        -2.157722
