19
Iteration:  3261
 C        -0.098797         0.333587        -0.153739
 C         1.329791        -0.064364         0.083925
 C         2.003440         0.651739         1.195498
 C         3.235364         0.576253         0.447371
 C         3.232821        -0.845625        -0.323301
 O         4.359215        -1.580665        -0.819552
 C         1.928125        -1.521767        -0.002796
 C         2.539779         0.421184        -0.818354
 O         2.844710         0.848180        -2.099447
 H        -0.752783         0.052227         0.663794
 H        -0.043001         1.424289        -0.192424
 H        -0.484196        -0.103607        -0.970703
 H         1.608350         1.720498         1.356349
 H         1.909721         0.356887         2.231592
 H         4.204421         1.054919         0.544118
 H         4.973841        -0.959641        -1.164081
 H         1.661669        -2.086504        -0.909576
 H         1.922389        -2.098531         0.963266
 H         2.429752         1.760654        -2.267428
