19
Iteration:  2076charge 0 multiplicity 1
 C        -0.079802         0.321330        -0.209434
 C         1.337164        -0.061485         0.034889
 C         2.050780         0.548830         1.309575
 C         3.375576         0.496803         0.526450
 C         3.228578        -0.810458        -0.334579
 O         4.391426        -1.464310        -0.734631
 C         1.943671        -1.555530        -0.000823
 C         2.520028         0.403012        -0.892822
 O         2.657256         1.065223        -2.118382
 H        -0.694293         0.122233         0.580405
 H        -0.019816         1.483185        -0.354292
 H        -0.509173        -0.025565        -1.124662
 H         1.728087         1.568305         1.549864
 H         2.040508        -0.154857         2.119214
 H         4.264312         1.045508         0.587685
 H         4.187096        -1.967911        -1.624647
 H         1.614226        -2.120367        -0.909450
 H         1.734912        -1.982011         0.996510
 H         3.100122         0.345068        -2.668566
