19
Iteration:  4044
 C        -0.112506         0.358162        -0.176179
 C         1.337590        -0.025691         0.072531
 C         2.023023         0.613564         1.282873
 C         3.290074         0.492454         0.486634
 C         3.226016        -0.920587        -0.378096
 O         4.469898        -1.466167        -0.650477
 C         1.884857        -1.546522         0.061310
 C         2.576555         0.339210        -0.965527
 O         2.717668         0.976496        -2.228149
 H        -0.688701         0.345674         0.795375
 H        -0.392146         1.506690        -0.414854
 H        -0.482080        -0.112071        -1.118564
 H         1.760165         1.637510         1.486414
 H         1.920482        -0.029960         2.139874
 H         4.276388         0.897341         0.663589
 H         4.347686        -1.844181        -1.637787
 H         1.389016        -2.087070        -0.755578
 H         1.892742        -2.107075         1.027872
 H         3.009899         1.924892        -2.035366
