19
Iteration:   478
 C        -0.042705         0.194989        -0.184155
 C         1.327945        -0.082280         0.199910
 C         2.163445         0.787658         1.156910
 C         3.408665         0.540198         0.366142
 C         3.182851        -0.865147        -0.350030
 O         4.242002        -1.573774        -0.802269
 C         1.903272        -1.504872         0.182859
 C         2.598725         0.435342        -0.903085
 O         2.694530         0.995670        -2.184274
 H        -0.760515        -0.209500         0.605450
 H        -0.217337         1.307862        -0.221106
 H        -0.400699        -0.235927        -1.095198
 H         1.802756         1.866958         1.305686
 H         2.207160         0.391258         2.272905
 H         4.318726         1.043877         0.380829
 H         4.913304        -1.523910        -0.212021
 H         1.566779        -2.071702        -0.635955
 H         1.802841        -1.963199         1.169578
 H         2.012683         0.602552        -2.719116
