19
Iteration:  1074
 C        -0.129241         0.037082        -0.089989
 C         1.344809        -0.017483         0.064031
 C         2.105480         0.803251         1.117369
 C         3.300767         0.571111         0.302437
 C         3.224391        -0.923420        -0.390687
 O         4.417660        -1.547805        -0.686130
 C         1.996297        -1.490078         0.185244
 C         2.545953         0.386163        -0.951199
 O         2.660279         1.177924        -2.096294
 H        -0.707313        -0.465973         0.680279
 H        -0.374338         1.109199         0.052049
 H        -0.553682        -0.109254        -1.109868
 H         1.624477         1.842293         0.926345
 H         2.207814         0.452142         2.179278
 H         4.284907         0.911542         0.428816
 H         4.214452        -2.619551        -0.763413
 H         1.501502        -2.203585        -0.435719
 H         2.073330        -1.891823         1.203577
 H         2.561933         0.537549        -2.793638
