19
Iteration:  3892charge 0 multiplicity 1
 C        -0.127691         0.319854        -0.054029
 C         1.321384         0.004616        -0.025297
 C         1.980793         0.604266         1.178586
 C         3.368810         0.461007         0.526786
 C         3.277097        -0.813631        -0.223888
 O         4.345770        -1.466940        -0.723329
 C         1.856047        -1.464935        -0.072028
 C         2.658923         0.460904        -0.822542
 O         2.819128         0.777355        -2.214386
 H        -0.654459        -0.316970         0.594904
 H        -0.327870         1.359071         0.109102
 H        -0.712001        -0.039500        -0.882094
 H         1.710850         1.809213         1.335838
 H         1.721541         0.082588         2.218021
 H         4.366409         0.935191         0.650800
 H         4.358877        -1.270783        -1.727190
 H         1.403998        -1.938262        -0.956490
 H         1.694180        -2.100638         0.827038
 H         2.523907         1.669180        -2.559099
