19
Iteration:   265
 C        -0.045195         0.299143        -0.306777
 C         1.404502         0.020829         0.129218
 C         2.185582         0.808814         1.299643
 C         3.438694         0.588813         0.345498
 C         3.221983        -0.918864        -0.325991
 O         4.343813        -1.649521        -0.761644
 C         1.940482        -1.490964         0.166976
 C         2.584009         0.316437        -0.908589
 O         2.346378         0.996593        -2.143354
 H        -0.844036        -0.271703         0.191540
 H        -0.229092         1.371986        -0.237778
 H        -0.079767         0.097335        -1.450490
 H         1.983411         1.830510         1.442216
 H         2.124799         0.331649         2.339118
 H         4.439028         0.926150         0.466629
 H         4.643645        -2.069109        -0.026202
 H         1.698889        -2.134882        -0.751539
 H         1.979460        -2.042778         1.046663
 H         3.201054         0.946919        -2.646378
