19
Iteration:  2055charge 0 multiplicity 1
 C        -0.110892         0.352213        -0.245460
 C         1.261240        -0.074993         0.156582
 C         2.144983         0.557495         1.298795
 C         3.301786         0.511057         0.310114
 C         3.187363        -0.914802        -0.419349
 O         4.468943        -1.451689        -0.627304
 C         1.881544        -1.558576         0.035714
 C         2.544555         0.327461        -0.919209
 O         2.707303         1.143619        -2.045670
 H        -0.860247        -0.088531         0.323672
 H        -0.212582         1.482548        -0.078161
 H        -0.263720         0.094305        -1.262197
 H         1.763238         1.600093         1.393208
 H         2.256650        -0.026035         2.200434
 H         4.313807         0.699823         0.461793
 H         4.596072        -1.432246        -1.684822
 H         1.416835        -2.104750        -0.816136
 H         1.858700        -2.147495         1.015438
 H         2.523468         0.490929        -2.684301
