19
Iteration:   389charge 0 multiplicity 1
 C        -0.101907         0.264890        -0.195470
 C         1.361188         0.023594         0.084863
 C         2.135888         0.711561         1.207671
 C         3.391786         0.521870         0.365932
 C         3.241339        -0.889579        -0.378333
 O         4.370107        -1.574353        -0.846099
 C         1.906627        -1.395560         0.177898
 C         2.605189         0.360582        -0.903324
 O         2.560882         0.975877        -2.086223
 H        -0.536865         0.352829         0.766270
 H        -0.302387         1.205598        -0.781419
 H        -0.600700        -0.642500        -0.656445
 H         1.900166         1.805809         1.169828
 H         2.020082         0.337505         2.346364
 H         4.363600         0.981323         0.593374
 H         4.872723        -2.012031         0.017870
 H         1.431831        -2.042696        -0.589652
 H         1.807526        -1.846652         1.152746
 H         2.402575         0.302485        -2.725953
