19
Iteration:  4709charge 0 multiplicity 1
 C        -0.119749         0.286804        -0.250760
 C         1.335866         0.008511        -0.006336
 C         2.070621         0.608627         1.237501
 C         3.320035         0.458379         0.425370
 C         3.259227        -0.851879        -0.268683
 O         4.425539        -1.636164        -0.618403
 C         1.932619        -1.482118        -0.004121
 C         2.566172         0.409252        -0.926683
 O         2.656857         1.183161        -2.073605
 H        -0.592135        -0.258705         0.525431
 H        -0.414059         1.372590        -0.171608
 H        -0.643474        -0.075584        -1.194736
 H         1.937155         1.606713         1.456792
 H         1.873221        -0.052976         2.032788
 H         4.282111         0.926028         0.639003
 H         4.107956        -2.170091        -1.439561
 H         1.424819        -2.036298        -0.785600
 H         1.768966        -2.054971         0.974650
 H         3.299770         0.779817        -2.736212
