19
Iteration:  1908
 C        -0.122966         0.349585        -0.185710
 C         1.359952        -0.091352         0.001609
 C         1.999675         0.601407         1.196857
 C         3.338520         0.598520         0.537387
 C         3.305049        -0.862016        -0.230371
 O         4.435998        -1.545131        -0.738377
 C         1.963692        -1.521996        -0.129047
 C         2.664834         0.383142        -0.802053
 O         2.512954         0.978925        -2.049852
 H        -0.735797         0.249045         0.732846
 H        -0.051440         1.383657        -0.509543
 H        -0.671267        -0.097340        -1.070993
 H         1.547286         1.629680         1.236419
 H         1.858086         0.133240         2.249205
 H         4.322198         0.993902         0.588967
 H         4.349157        -1.307335        -1.636211
 H         1.686795        -2.146533        -1.065204
 H         1.768280        -2.259320         0.732213
 H         3.373744         1.019506        -2.602717
