19
Iteration:  2867charge 0 multiplicity 1
 C        -0.188331         0.281942        -0.192220
 C         1.320296         0.026055         0.078932
 C         2.134735         0.573199         1.297833
 C         3.345385         0.525596         0.370528
 C         3.237958        -0.825839        -0.312058
 O         4.402925        -1.483864        -0.687092
 C         1.856457        -1.454528        -0.022296
 C         2.579403         0.360407        -0.880600
 O         2.792289         0.915960        -2.130506
 H        -0.804128        -0.234137         0.511423
 H        -0.549957         1.357795        -0.201325
 H        -0.418345        -0.268673        -1.105895
 H         1.760385         1.584345         1.539675
 H         2.059850        -0.045045         2.267679
 H         4.371334         1.013584         0.451601
 H         4.096231        -1.915494        -1.443768
 H         1.431488        -1.801838        -0.950612
 H         1.728635        -2.233959         0.758778
 H         2.518062         1.816873        -2.127832
