19
Iteration:   959
 C        -0.049553         0.346464        -0.218162
 C         1.366143         0.015543         0.090483
 C         2.072267         0.659136         1.283671
 C         3.290736         0.540329         0.385977
 C         3.262712        -0.858447        -0.224414
 O         4.378289        -1.430353        -0.981478
 C         1.916771        -1.482030         0.224758
 C         2.556320         0.297170        -0.899895
 O         2.650373         0.796148        -2.127747
 H        -0.770798         0.093983         0.614530
 H        -0.130625         1.429349        -0.450169
 H        -0.269113        -0.238965        -1.122493
 H         1.884676         1.702482         1.215412
 H         2.012023         0.199178         2.310759
 H         4.379696         0.929839         0.487551
 H         5.082964        -1.115242        -0.550761
 H         1.596393        -2.177192        -0.594432
 H         1.721034        -1.931358         1.164512
 H         1.788014         1.060423        -2.348301
