19
Iteration:  2771charge 0 multiplicity 1
 C        -0.033866         0.127120        -0.360611
 C         1.385846         0.057147         0.079879
 C         2.100423         0.585715         1.341973
 C         3.328031         0.448134         0.566768
 C         3.183467        -0.836088        -0.372948
 O         4.319503        -1.521576        -0.779858
 C         1.877607        -1.360494         0.095525
 C         2.651106         0.502466        -0.845876
 O         2.672461         0.949510        -2.169045
 H        -0.771384        -0.340112         0.287251
 H        -0.320799         1.234920        -0.345356
 H        -0.220357        -0.439859        -1.366506
 H         1.961878         1.602096         1.638644
 H         2.042772         0.054810         2.268031
 H         4.424595         0.668593         0.819997
 H         4.173937        -2.031817        -1.717002
 H         1.288004        -2.021343        -0.592543
 H         1.907515        -1.742139         1.135864
 H         2.470498         1.911459        -2.305708
