19
Iteration:  4706
 C        -0.109999         0.289898        -0.249878
 C         1.330559         0.008772        -0.013015
 C         2.047935         0.609246         1.248730
 C         3.305716         0.467004         0.440181
 C         3.274510        -0.865711        -0.284358
 O         4.429212        -1.633289        -0.637473
 C         1.930107        -1.484105         0.012037
 C         2.561266         0.397234        -0.934906
 O         2.664161         1.182724        -2.065714
 H        -0.657859        -0.231242         0.640763
 H        -0.463581         1.389829        -0.238565
 H        -0.553599        -0.074569        -1.243658
 H         1.959072         1.706213         1.446689
 H         1.908807        -0.067364         2.052221
 H         4.321741         0.855728         0.666325
 H         4.154059        -2.184177        -1.408095
 H         1.398264        -2.013955        -0.810540
 H         1.834273        -1.957968         0.993084
 H         3.263216         0.756905        -2.768832
