19
Iteration:   946
 C        -0.038893         0.306937        -0.172481
 C         1.351806        -0.065505         0.148550
 C         2.074078         0.767441         1.238691
 C         3.410113         0.518704         0.438553
 C         3.230296        -0.883400        -0.306832
 O         4.315286        -1.446003        -0.907037
 C         1.925433        -1.531413         0.181844
 C         2.506842         0.333498        -0.852529
 O         2.699458         0.839772        -2.208627
 H        -0.727539        -0.043907         0.574765
 H        -0.160399         1.456549        -0.296445
 H        -0.477857        -0.176000        -1.155292
 H         1.592718         1.775606         1.328534
 H         1.975684         0.343023         2.200553
 H         4.320573         1.055680         0.596590
 H         5.273315        -0.960678        -0.607006
 H         1.432994        -2.112336        -0.683915
 H         1.922421        -2.126651         1.129287
 H         1.835644         1.153976        -2.655975
