19
Iteration:  3141charge 0 multiplicity 1
 C        -0.055091         0.240220        -0.382079
 C         1.403015        -0.003729        -0.012850
 C         2.084418         0.695723         1.254023
 C         3.366300         0.446640         0.416629
 C         3.212846        -0.943737        -0.328431
 O         4.390593        -1.627716        -0.652215
 C         1.923201        -1.509862         0.192372
 C         2.627822         0.397820        -0.914087
 O         2.531400         1.181649        -2.109626
 H        -0.724666        -0.118159         0.596241
 H        -0.309156         1.346576        -0.718735
 H        -0.497076        -0.442271        -1.138509
 H         1.787180         1.752012         1.502180
 H         1.909872         0.217228         2.159362
 H         4.464689         0.533177         0.691203
 H         4.393160        -1.866550        -1.703867
 H         1.426466        -2.174895        -0.549852
 H         1.948095        -1.989599         1.229429
 H         2.835857         2.033310        -1.887860
