19
Iteration:   660charge 0 multiplicity 1
 C        -0.091004         0.196500        -0.183216
 C         1.337188        -0.072152         0.096570
 C         2.108919         0.815136         1.147178
 C         3.391489         0.521839         0.316760
 C         3.250217        -0.943729        -0.329236
 O         4.349158        -1.617101        -0.782533
 C         1.928744        -1.452224         0.227751
 C         2.589732         0.326546        -0.918398
 O         2.606297         1.132552        -2.102854
 H        -0.645749         0.015131         0.670544
 H        -0.139772         1.255570        -0.536722
 H        -0.535778        -0.522195        -0.997433
 H         1.816573         1.932017         1.034171
 H         2.239169         0.547798         2.223848
 H         4.374102         1.006742         0.472542
 H         4.749257        -1.930777        -0.058547
 H         1.450941        -2.096651        -0.601135
 H         1.974046        -1.918657         1.203742
 H         1.983226         0.792382        -2.841279
