19
Iteration:  3122charge 0 multiplicity 1
 C        -0.096593         0.154074        -0.374740
 C         1.324644         0.050869         0.076845
 C         2.241447         0.620179         1.230793
 C         3.459447         0.442685         0.428286
 C         3.180506        -0.870506        -0.368308
 O         4.365049        -1.626767        -0.561741
 C         1.847467        -1.419055         0.004268
 C         2.624027         0.427825        -0.866907
 O         2.510107         1.090064        -2.072217
 H        -0.845222         0.057769         0.386112
 H        -0.296457         1.120345        -0.870155
 H        -0.321982        -0.759788        -0.979085
 H         2.013178         1.649443         1.419341
 H         2.145546         0.235931         2.308423
 H         4.466298         0.911907         0.562064
 H         4.533287        -1.511924        -1.599286
 H         1.381920        -2.027429        -0.813236
 H         1.704384        -1.867189         0.958612
 H         2.977267         1.931457        -2.087072
