19
Iteration:  4037
 C        -0.114050         0.371539        -0.191348
 C         1.359450        -0.069534         0.066528
 C         2.049344         0.611667         1.274290
 C         3.258326         0.451702         0.434339
 C         3.208639        -0.919675        -0.390578
 O         4.475856        -1.502644        -0.639445
 C         1.939702        -1.500873         0.094706
 C         2.589631         0.375543        -0.931014
 O         2.689035         1.011009        -2.229881
 H        -0.812549         0.251549         0.584096
 H        -0.212037         1.356719        -0.583207
 H        -0.540379        -0.217604        -1.036307
 H         1.728151         1.666827         1.695105
 H         1.753763         0.059717         2.230553
 H         4.301288         0.655276         0.610209
 H         4.386193        -1.814559        -1.553386
 H         1.296040        -1.972850        -0.662445
 H         1.810874        -1.946240         1.068433
 H         2.902337         2.007565        -2.032477
