19
Iteration:   775charge 0 multiplicity 1
 C        -0.092335         0.309555        -0.281564
 C         1.321288        -0.044190         0.054346
 C         2.160017         0.681887         1.318458
 C         3.470375         0.669351         0.373743
 C         3.245459        -0.861921        -0.248235
 O         4.380410        -1.366831        -0.915328
 C         1.858133        -1.462214         0.159774
 C         2.544735         0.309984        -0.866244
 O         2.541721         0.811734        -2.099640
 H        -0.891264        -0.076897         0.522539
 H        -0.131187         1.360118        -0.464633
 H        -0.502302        -0.191006        -1.094916
 H         1.855780         1.654536         1.522457
 H         2.246297         0.102223         2.248731
 H         4.491409         0.927326         0.642936
 H         4.871387        -2.191681        -0.360092
 H         1.551325        -2.148454        -0.645040
 H         1.599580        -1.889658         1.216883
 H         2.794682         0.145917        -2.783838
