19
Iteration:  1049
 C        -0.176154         0.083086        -0.106592
 C         1.341644        -0.001927         0.002737
 C         2.124070         0.774771         1.141115
 C         3.394020         0.491697         0.324002
 C         3.296277        -0.868906        -0.366362
 O         4.438306        -1.549297        -0.682321
 C         1.975854        -1.454237         0.217500
 C         2.534910         0.255331        -1.012866
 O         2.517221         1.188506        -2.099727
 H        -0.875764        -0.342337         0.754171
 H        -0.378893         1.149376        -0.098880
 H        -0.557400        -0.140022        -1.063396
 H         1.927508         1.812164         1.088169
 H         2.029936         0.354098         2.217006
 H         4.352352         0.981810         0.193926
 H         4.248337        -2.438988        -0.417260
 H         1.587784        -2.073616        -0.561284
 H         1.876249        -1.880830         1.203314
 H         3.348657         1.031037        -2.505098
