19
Iteration:  4465charge 0 multiplicity 1
 C        -0.085607         0.224065        -0.302680
 C         1.352881         0.034970         0.017710
 C         2.026115         0.705341         1.231572
 C         3.379301         0.393101         0.462570
 C         3.207037        -0.916838        -0.343297
 O         4.462538        -1.530827        -0.729763
 C         1.858256        -1.452407         0.121354
 C         2.585772         0.367306        -0.840010
 O         2.623609         1.095796        -2.057071
 H        -0.677712         0.156666         0.567147
 H        -0.399193         1.232328        -0.695093
 H        -0.375546        -0.488431        -1.057096
 H         1.956250         1.857524         1.490200
 H         1.819837         0.157296         2.317459
 H         4.342840         0.853623         0.664714
 H         4.458099        -1.754057        -1.722458
 H         1.303175        -2.088068        -0.675796
 H         1.865719        -1.973104         1.095733
 H         3.180311         0.775042        -2.857998
