19
Iteration:  3694
 C        -0.125681         0.314844        -0.192043
 C         1.267026        -0.014699         0.038981
 C         2.030349         0.707097         1.272275
 C         3.296236         0.543972         0.477108
 C         3.232527        -0.894565        -0.257238
 O         4.337114        -1.494357        -0.872830
 C         1.945174        -1.526695        -0.013059
 C         2.539459         0.378052        -0.789573
 O         2.896817         0.839444        -2.081917
 H        -0.784612         0.052451         0.742745
 H        -0.425032         1.395934        -0.322316
 H        -0.458369        -0.138820        -1.086764
 H         1.846413         1.690209         1.335905
 H         2.070830         0.140403         2.141971
 H         4.307844         0.991299         0.626038
 H         4.471446        -1.156930        -1.790642
 H         1.505091        -2.069087        -0.841235
 H         1.798630        -2.151252         0.900623
 H         2.448033         1.648044        -2.169097
