19
Iteration:  4406
 C        -0.073019         0.342749        -0.255496
 C         1.299956        -0.049865         0.009899
 C         2.125091         0.538246         1.274595
 C         3.321141         0.455212         0.428367
 C         3.242315        -0.915128        -0.377360
 O         4.501223        -1.535699        -0.584103
 C         1.875199        -1.446097         0.040109
 C         2.616997         0.422755        -0.977278
 O         2.533753         1.094021        -2.144305
 H        -0.609506         0.362669         0.812155
 H        -0.131067         1.288529        -0.692948
 H        -0.743653        -0.365962        -0.775401
 H         1.732535         1.593500         1.361729
 H         2.050670         0.024676         2.275013
 H         4.289493         0.851441         0.699328
 H         4.282323        -2.444027        -0.930052
 H         1.539564        -2.097031        -0.785674
 H         1.695907        -2.016687         0.972535
 H         3.179698         1.728569        -2.301854
