19
Iteration:  2370
 C        -0.092420         0.314676        -0.190746
 C         1.322005        -0.064639        -0.050232
 C         2.021041         0.560292         1.209897
 C         3.309431         0.407868         0.474702
 C         3.278675        -0.879494        -0.347397
 O         4.427489        -1.475591        -0.710621
 C         1.902788        -1.537961        -0.002230
 C         2.612584         0.450879        -0.848236
 O         2.724493         1.080717        -2.073806
 H        -0.661670         0.007784         0.649931
 H        -0.164839         1.337517        -0.281779
 H        -0.521684         0.001473        -1.128497
 H         1.749906         1.616783         1.282127
 H         1.625004         0.284059         2.265945
 H         4.334389         0.909684         0.543194
 H         4.274278        -2.355585        -1.225239
 H         1.641000        -2.221885        -0.884881
 H         1.787080        -1.947279         1.029386
 H         2.003643         1.697112        -1.952568
