19
Iteration:  4065charge 0 multiplicity 1
 C        -0.161614         0.339372        -0.123510
 C         1.316609        -0.107315        -0.043492
 C         2.084969         0.613804         1.190035
 C         3.340446         0.513424         0.399174
 C         3.230935        -0.866606        -0.255533
 O         4.409131        -1.398401        -0.710858
 C         1.875122        -1.488939        -0.032061
 C         2.568924         0.430274        -0.830520
 O         2.783078         0.812758        -2.087307
 H        -0.748647         0.033951         0.807690
 H        -0.378039         1.470099        -0.113287
 H        -0.651721         0.078477        -1.074506
 H         1.770011         1.597310         1.297552
 H         1.945057         0.134442         2.132810
 H         4.356129         0.841389         0.487575
 H         4.174608        -1.740049        -1.527926
 H         1.557950        -1.961251        -0.966796
 H         1.534122        -2.037605         0.876095
 H         3.045400         1.767637        -2.098657
