19
Iteration:  3129
 C        -0.121222         0.150837        -0.393385
 C         1.378917         0.034647         0.028166
 C         2.180733         0.654415         1.236871
 C         3.458759         0.417268         0.434134
 C         3.209962        -0.884361        -0.355024
 O         4.348273        -1.614143        -0.586968
 C         1.837109        -1.483394         0.096538
 C         2.663447         0.451521        -0.864775
 O         2.496679         1.131299        -2.101813
 H        -0.831829         0.131753         0.614530
 H        -0.341418         1.196446        -0.862072
 H        -0.314392        -0.611633        -1.143469
 H         2.103374         1.769348         1.383641
 H         2.173913         0.074041         2.110685
 H         4.481972         0.823320         0.602530
 H         4.576396        -1.621176        -1.523933
 H         1.323230        -2.064898        -0.676802
 H         1.799340        -2.083088         1.082359
 H         2.948199         2.047696        -2.054577
