19
Iteration:  4566charge 0 multiplicity 1
 C        -0.177146         0.236662        -0.180703
 C         1.322424        -0.010049         0.037510
 C         2.105511         0.689845         1.221870
 C         3.343175         0.444101         0.435826
 C         3.227436        -0.868971        -0.393048
 O         4.434756        -1.499958        -0.671115
 C         1.856758        -1.474319        -0.007119
 C         2.616065         0.298311        -0.930395
 O         2.701011         1.151958        -2.094279
 H        -0.778861        -0.399829         0.364574
 H        -0.475824         1.253417         0.193196
 H        -0.435184         0.212931        -1.247567
 H         1.897673         1.757070         1.315835
 H         1.989679        -0.097232         2.083542
 H         4.386440         0.715859         0.638711
 H         4.445950        -2.182422         0.097848
 H         1.502270        -1.989799        -0.917855
 H         1.567345        -1.922265         0.977612
 H         2.938551         0.475776        -2.773787
