19
Iteration:  2247
 C        -0.081333         0.224417        -0.301806
 C         1.342394        -0.063742         0.042758
 C         2.061897         0.558392         1.220013
 C         3.342749         0.487343         0.438313
 C         3.236235        -0.819240        -0.384616
 O         4.336652        -1.669480        -0.687487
 C         1.961958        -1.490491         0.099800
 C         2.586095         0.434856        -0.885424
 O         2.587166         1.184123        -2.121354
 H        -0.851639        -0.317494         0.347558
 H        -0.300997         1.277277        -0.188541
 H        -0.304746        -0.049139        -1.351951
 H         1.802198         1.585941         1.564564
 H         2.092107        -0.072427         2.208941
 H         4.304289         0.845398         0.500201
 H         5.293512        -1.277720        -0.605809
 H         1.596176        -2.231920        -0.680678
 H         1.850245        -2.006898         1.073341
 H         3.065075         2.060658        -1.983254
