19
Iteration:  2608
 C        -0.121791         0.287732        -0.321036
 C         1.324171        -0.026860        -0.016709
 C         2.045840         0.602469         1.243987
 C         3.392945         0.418448         0.442808
 C         3.244968        -0.879723        -0.333709
 O         4.392114        -1.505086        -0.759260
 C         1.900348        -1.462982         0.210031
 C         2.581578         0.309356        -0.894891
 O         2.684852         1.160939        -2.033942
 H        -0.833194        -0.393754         0.129936
 H        -0.360913         1.202589         0.062413
 H        -0.305143         0.265599        -1.431433
 H         1.712349         1.718305         1.548527
 H         1.892635         0.019710         2.233893
 H         4.261540         0.956806         0.530660
 H         4.450418        -1.943935        -1.778001
 H         1.375135        -2.326083        -0.297917
 H         1.963480        -1.674007         1.258990
 H         2.935274         0.737158        -2.829726
