19
Iteration:  2395
 C        -0.108284         0.267687        -0.277278
 C         1.334674         0.013302         0.060920
 C         2.089821         0.625309         1.211644
 C         3.357281         0.397782         0.468014
 C         3.206922        -0.951656        -0.450203
 O         4.489839        -1.423466        -0.637143
 C         1.843252        -1.526316         0.047446
 C         2.621742         0.338937        -0.910918
 O         2.606153         1.106471        -2.095124
 H        -0.714272        -0.369416         0.298341
 H        -0.435548         1.352845        -0.041142
 H        -0.321700         0.175131        -1.323785
 H         1.805054         1.675790         1.435491
 H         1.807396         0.152690         2.199836
 H         4.337110         0.322764         0.766662
 H         4.534290        -2.006237        -1.331111
 H         1.306474        -2.012480        -0.722209
 H         1.875651        -2.069518         1.005360
 H         2.865023         1.903549        -1.672269
