19
Iteration:  3573charge 0 multiplicity 1
 C        -0.154174         0.294146        -0.243506
 C         1.391527        -0.026873         0.029278
 C         2.178213         0.550672         1.193482
 C         3.460785         0.473728         0.337352
 C         3.192725        -0.919030        -0.364243
 O         4.435135        -1.607164        -0.448241
 C         1.845679        -1.473198        -0.024115
 C         2.623229         0.443172        -0.919381
 O         2.541272         1.137743        -2.139855
 H        -0.837983        -0.237292         0.518077
 H        -0.542188         1.277799         0.025525
 H        -0.425243         0.114658        -1.226585
 H         1.962735         1.694677         1.287004
 H         2.159265        -0.072712         2.107119
 H         4.487126         0.790024         0.507904
 H         4.415532        -2.218716        -1.344639
 H         1.273086        -1.959932        -0.807170
 H         1.667598        -2.103635         0.862975
 H         2.503010         2.143801        -1.926238
