19
Iteration:  1746
 C        -0.193388         0.267240        -0.176091
 C         1.299637        -0.042235         0.098367
 C         2.093396         0.553967         1.246766
 C         3.345554         0.531578         0.455297
 C         3.240045        -0.854789        -0.273264
 O         4.376621        -1.398108        -0.870195
 C         1.899349        -1.464445        -0.055693
 C         2.601120         0.382746        -0.844967
 O         2.731909         0.864847        -2.133841
 H        -0.725234         0.032246         0.694553
 H        -0.433368         1.391856        -0.444751
 H        -0.602936        -0.244441        -1.097402
 H         1.812539         1.630021         1.394097
 H         2.056727         0.100190         2.222827
 H         4.234402         0.987100         0.847631
 H         5.025805        -1.539977        -0.094651
 H         1.509715        -2.037833        -0.887055
 H         1.677080        -2.086477         0.777663
 H         3.017085         1.834643        -2.068077
