19
Iteration:  3926
 C        -0.175764         0.311719        -0.193359
 C         1.279453        -0.025299         0.159818
 C         2.108197         0.673234         1.264533
 C         3.295381         0.501798         0.365251
 C         3.189651        -0.942307        -0.324417
 O         4.454581        -1.464607        -0.692940
 C         1.834978        -1.493953         0.033897
 C         2.613968         0.371006        -0.907736
 O         2.801773         0.904574        -2.162077
 H        -0.743684        -0.247143         0.440741
 H        -0.481154         1.287966         0.047036
 H        -0.224267         0.199618        -1.255028
 H         1.726937         1.806742         1.461009
 H         1.858155         0.072632         2.221353
 H         4.313017         0.966635         0.357133
 H         4.423753        -1.536510        -1.757432
 H         1.317273        -1.999231        -0.806420
 H         1.683196        -2.137664         0.921471
 H         3.018567         1.815459        -2.025729
