19
Iteration:  4184
 C        -0.057799         0.228573        -0.369679
 C         1.359505        -0.057953        -0.010629
 C         2.136523         0.696669         1.156263
 C         3.379123         0.409126         0.440424
 C         3.265505        -0.901486        -0.319235
 O         4.371365        -1.633104        -0.654723
 C         1.885186        -1.461452         0.141507
 C         2.604938         0.389765        -0.865906
 O         2.523788         1.160552        -2.060715
 H        -0.668790         0.253891         0.583215
 H        -0.156776         1.187921        -0.740600
 H        -0.471204        -0.351138        -1.147200
 H         1.997607         1.841403         1.500118
 H         1.893518         0.156729         2.240939
 H         4.377380         0.692042         0.625987
 H         4.480857        -1.842947        -1.530013
 H         1.458741        -2.137328        -0.616530
 H         1.781350        -1.894649         1.166631
 H         2.843006         2.041643        -2.010010
