19
Iteration:  4897
 C        -0.132078         0.342647        -0.089601
 C         1.262440        -0.035626        -0.027897
 C         1.991405         0.556647         1.158698
 C         3.328906         0.474937         0.365643
 C         3.225056        -0.868428        -0.332573
 O         4.428973        -1.444099        -0.650540
 C         1.840948        -1.511235         0.031757
 C         2.545524         0.338929        -0.905386
 O         2.899460         0.998889        -2.106926
 H        -0.636748        -0.074410         0.813617
 H        -0.046749         1.498728        -0.151700
 H        -0.680723         0.032853        -1.090505
 H         1.694402         1.570523         1.338714
 H         1.870754         0.002675         2.070075
 H         4.355460         0.854876         0.556597
 H         4.166822        -2.018410        -1.478965
 H         1.402038        -2.202352        -0.671623
 H         1.734630        -2.124585         0.930041
 H         2.884705         2.037654        -1.909000
