19
Iteration:  4542
 C        -0.128093         0.195570        -0.250838
 C         1.375299         0.023355         0.011119
 C         2.038701         0.689192         1.234894
 C         3.336529         0.449521         0.501779
 C         3.190885        -0.869401        -0.312885
 O         4.401141        -1.514518        -0.769916
 C         1.889355        -1.522740         0.077284
 C         2.661619         0.474028        -0.833954
 O         2.728749         1.080693        -2.134797
 H        -0.721646        -0.563686         0.274771
 H        -0.401312         1.176860         0.336144
 H        -0.434802         0.369730        -1.286481
 H         1.747330         1.786606         1.055101
 H         1.854991         0.050562         2.186221
 H         4.276925         0.940140         0.601761
 H         4.182890        -2.374075        -0.595523
 H         1.496060        -2.044753        -0.878548
 H         1.738583        -2.012833         1.070205
 H         2.557336         0.380323        -2.721156
