19
Iteration:   243charge 0 multiplicity 1
 C        -0.022695         0.363249        -0.401556
 C         1.412170        -0.003631         0.017260
 C         2.231755         0.685295         1.148632
 C         3.468271         0.492065         0.338904
 C         3.308617        -0.907342        -0.319580
 O         4.400441        -1.639323        -0.757221
 C         1.917709        -1.404360         0.219040
 C         2.544233         0.352889        -0.855640
 O         2.231038         0.994606        -1.982130
 H        -0.743878         0.243432         0.440619
 H        -0.007966         1.421854        -0.660914
 H        -0.453096        -0.198726        -1.315356
 H         1.989484         1.688186         1.281586
 H         2.099956         0.176646         2.138587
 H         4.254852         1.144448         0.565821
 H         4.851372        -2.082130         0.181322
 H         1.422647        -2.158740        -0.508802
 H         1.904230        -1.707255         1.209941
 H         2.982633         0.876666        -2.574589
