19
Iteration:  3957charge 0 multiplicity 1
 C        -0.123636         0.255210        -0.385941
 C         1.368804        -0.008523         0.025468
 C         2.101791         0.692009         1.259635
 C         3.385696         0.473478         0.408693
 C         3.170195        -0.876718        -0.329793
 O         4.326044        -1.555482        -0.732525
 C         1.971741        -1.476386         0.158525
 C         2.626073         0.372744        -0.868237
 O         2.656985         1.027252        -2.062287
 H        -0.654925        -0.351653         0.333107
 H        -0.363541         1.362553        -0.227949
 H        -0.432759        -0.162852        -1.385602
 H         1.810463         1.839427         1.233718
 H         1.854431        -0.014775         2.106971
 H         4.471730         0.662829         0.613127
 H         4.000100        -2.086303        -1.396605
 H         1.494730        -2.220990        -0.477188
 H         2.028615        -1.743257         1.231149
 H         2.793715         2.014312        -1.837486
