19
Iteration:  3189charge 0 multiplicity 1
 C        -0.188159         0.293084        -0.251280
 C         1.318037        -0.009210         0.077298
 C         2.088066         0.729393         1.230557
 C         3.319874         0.480398         0.422326
 C         3.256855        -0.883033        -0.237193
 O         4.367624        -1.429627        -0.801819
 C         1.891942        -1.574945         0.074590
 C         2.591062         0.321745        -0.885985
 O         2.795907         0.945324        -2.110758
 H        -0.910167        -0.381061         0.231628
 H        -0.427246         1.359961        -0.094519
 H        -0.389521         0.057889        -1.399478
 H         1.862671         1.745641         1.374555
 H         2.069448         0.445953         2.315106
 H         4.288438         0.822478         0.648985
 H         4.216455        -2.162149        -1.335389
 H         1.522555        -2.266466        -0.723827
 H         1.911763        -2.059873         1.020011
 H         2.650108         1.925997        -1.904468
