19
Iteration:  2815charge 0 multiplicity 1
 C        -0.173719         0.260098        -0.255685
 C         1.302248        -0.086610         0.029611
 C         2.032878         0.757296         1.215647
 C         3.387346         0.485040         0.434513
 C         3.298249        -0.885001        -0.317771
 O         4.389755        -1.538115        -0.829767
 C         1.878778        -1.474809         0.103003
 C         2.549020         0.311761        -0.818182
 O         2.749598         0.960445        -2.034530
 H        -0.929965        -0.381778         0.233481
 H        -0.261997         1.315307         0.219874
 H        -0.412962         0.295548        -1.430886
 H         1.721514         1.762947         1.287236
 H         1.923531         0.415159         2.207091
 H         4.366925         1.012339         0.608529
 H         4.295634        -1.215973        -1.846453
 H         1.613222        -2.168653        -0.741148
 H         1.771792        -2.003550         1.065887
 H         3.124884         1.815784        -1.770525
