19
Iteration:  3448charge 0 multiplicity 1
 C        -0.082986         0.219108        -0.203895
 C         1.359731         0.074336         0.033956
 C         2.030724         0.610493         1.256974
 C         3.367494         0.510890         0.556565
 C         3.270347        -0.814257        -0.244105
 O         4.263545        -1.590937        -0.906615
 C         1.878181        -1.406185         0.058334
 C         2.562755         0.534526        -0.824275
 O         2.822411         0.778864        -2.149444
 H        -0.797846        -0.266548         0.533444
 H        -0.404805         1.279066        -0.378168
 H        -0.466191        -0.378701        -1.074374
 H         1.784153         1.607828         1.572233
 H         1.823347         0.179779         2.276295
 H         4.266444         0.997482         1.012326
 H         4.578075        -1.048115        -1.759570
 H         1.512574        -1.914832        -0.869001
 H         1.797892        -1.957621         0.986762
 H         2.638517         1.766247        -2.311614
