19
Iteration:  2338charge 0 multiplicity 1
 C        -0.151768         0.217449        -0.276112
 C         1.294004        -0.035053         0.071517
 C         2.099895         0.576329         1.389701
 C         3.274598         0.640452         0.469516
 C         3.259169        -0.829881        -0.344187
 O         4.339756        -1.596080        -0.757140
 C         1.909408        -1.481050        -0.082572
 C         2.609556         0.438759        -0.770499
 O         2.843473         1.009932        -2.100792
 H        -0.772831         0.310202         0.570424
 H        -0.220938         1.214796        -0.804933
 H        -0.542664        -0.586701        -0.878878
 H         1.709902         1.591637         1.645255
 H         2.183794        -0.204308         2.242526
 H         4.313701         1.110642         0.527902
 H         4.324460        -1.543746        -1.725400
 H         1.597369        -2.081215        -0.971627
 H         1.710163        -2.193776         0.733400
 H         1.974097         1.466809        -2.395806
