19
Iteration:  4851
 C        -0.068669         0.248573        -0.315095
 C         1.355510         0.027420         0.012760
 C         2.065596         0.626133         1.278472
 C         3.337044         0.437894         0.548549
 C         3.226896        -0.863767        -0.285773
 O         4.338880        -1.514999        -0.834044
 C         1.823202        -1.401151         0.053593
 C         2.603908         0.426818        -0.758239
 O         2.771178         0.866845        -2.090088
 H        -0.669491         0.162343         0.571247
 H        -0.345580         1.177738        -0.927753
 H        -0.469862        -0.625627        -0.959331
 H         1.830966         1.684381         1.370299
 H         1.907005         0.042691         2.183611
 H         4.312051         0.891680         0.771617
 H         4.414135        -0.990896        -1.730738
 H         1.482529        -1.879773        -0.825981
 H         1.425718        -2.011049         0.800205
 H         2.971658         1.916017        -2.175886
