19
Iteration:  1118
 C        -0.079879         0.101009        -0.182169
 C         1.362190        -0.041325         0.091262
 C         2.101267         0.758166         1.287944
 C         3.354176         0.567368         0.390864
 C         3.248047        -0.793652        -0.298929
 O         4.387076        -1.468807        -0.754517
 C         1.912997        -1.434846         0.162787
 C         2.576711         0.417522        -0.912006
 O         2.633581         0.814931        -2.202948
 H        -0.683647        -0.318072         0.634912
 H        -0.390093         1.168025        -0.329982
 H        -0.408013        -0.402569        -1.152988
 H         1.952319         1.899802         1.437410
 H         1.970292         0.131700         2.202751
 H         4.416988         0.916979         0.566048
 H         4.651656        -1.236821        -1.780183
 H         1.493484        -1.963074        -0.657109
 H         1.817792        -1.950841         1.110491
 H         1.884234         1.351414        -2.490311
