19
Iteration:  1437charge 0 multiplicity 1
 C        -0.088100        -0.025385        -0.219744
 C         1.411816        -0.025021         0.055199
 C         2.131410         0.751837         1.209727
 C         3.365891         0.613225         0.356391
 C         3.294123        -0.826527        -0.348461
 O         4.307539        -1.761276        -0.631252
 C         1.964092        -1.400014         0.087507
 C         2.565636         0.449523        -0.936679
 O         2.490575         1.127996        -2.116132
 H        -0.464865        -0.532300         0.568908
 H        -0.565672         1.005775        -0.123275
 H        -0.460621        -0.550435        -1.169489
 H         1.604802         1.701651         1.404650
 H         2.117338         0.129346         2.106855
 H         4.320371         1.105597         0.246141
 H         5.097304        -1.119588        -0.982202
 H         1.547645        -2.038180        -0.737903
 H         1.940681        -1.942915         1.071944
 H         3.082442         1.946819        -2.177713
