19
Iteration:  1400charge 0 multiplicity 1
 C        -0.131875         0.095508        -0.183122
 C         1.331095        -0.060301         0.083421
 C         2.086151         0.779082         1.187686
 C         3.353548         0.472560         0.347962
 C         3.212388        -0.844169        -0.409473
 O         4.466715        -1.460050        -0.755921
 C         1.985817        -1.513845         0.146347
 C         2.510519         0.345449        -0.893068
 O         2.604821         1.034956        -2.151736
 H        -0.778772        -0.246477         0.688700
 H        -0.266408         1.143998        -0.167138
 H        -0.550047        -0.176957        -1.118849
 H         1.952196         1.839836         1.189482
 H         1.995296         0.421689         2.277175
 H         4.337341         0.986034         0.309018
 H         4.695417        -2.298242        -0.146954
 H         1.453894        -2.158540        -0.551521
 H         2.018971        -1.968990         1.169680
 H         2.563166         1.996962        -1.800999
