19
Iteration:  1796
 C        -0.122487         0.095031        -0.251174
 C         1.329304        -0.030715         0.020400
 C         2.040662         0.717723         1.223277
 C         3.379471         0.528239         0.458917
 C         3.218318        -0.836981        -0.367592
 O         4.281332        -1.716777        -0.742481
 C         1.953570        -1.448137         0.110306
 C         2.643448         0.414688        -0.879291
 O         2.751579         1.163543        -2.086229
 H        -0.714069        -0.534190         0.530385
 H        -0.437463         1.070910        -0.077486
 H        -0.392407        -0.213252        -1.273393
 H         1.694940         1.747294         1.301006
 H         1.805388         0.050745         2.141941
 H         4.417616         0.906792         0.462884
 H         4.815704        -1.275654        -1.400462
 H         1.607091        -2.124559        -0.748615
 H         1.866201        -1.953186         1.167725
 H         2.243403         1.925540        -1.926666
