19
Iteration:  4170
 C        -0.003603         0.263000        -0.344084
 C         1.399192         0.008093         0.027930
 C         1.995063         0.765637         1.279959
 C         3.356434         0.470499         0.456136
 C         3.192373        -0.942297        -0.417858
 O         4.383764        -1.670815        -0.698657
 C         1.940639        -1.495576         0.108159
 C         2.620434         0.337019        -0.894835
 O         2.557415         1.097532        -2.036635
 H        -0.675392        -0.015031         0.489232
 H        -0.129651         1.351434        -0.530973
 H        -0.365003        -0.409811        -1.151932
 H         1.707611         1.795141         0.981737
 H         1.833500         0.384450         2.299339
 H         4.363710         0.862923         0.601664
 H         4.467177        -1.457685        -1.744903
 H         1.347469        -2.241713        -0.482833
 H         2.054378        -1.878688         1.142886
 H         3.064627         1.926556        -1.724870
