19
Iteration:  2221
 C        -0.156307         0.158466        -0.326788
 C         1.390322         0.097682         0.016933
 C         2.151494         0.617965         1.315082
 C         3.415610         0.426072         0.459830
 C         3.269550        -0.846509        -0.407046
 O         4.369585        -1.706521        -0.599060
 C         1.881134        -1.419622        -0.084419
 C         2.637627         0.434540        -0.856054
 O         2.537410         1.142917        -2.099555
 H        -0.605972        -0.609545         0.282424
 H        -0.715153         1.023210        -0.051747
 H        -0.317942        -0.173480        -1.340948
 H         1.957726         1.704816         1.497346
 H         2.082501         0.026890         2.202708
 H         4.531732         0.768833         0.461477
 H         5.234990        -1.295871        -0.437299
 H         1.469598        -1.872552        -0.959044
 H         1.602560        -2.102150         0.753751
 H         1.911678         1.952364        -1.945307
