19
Iteration:   431charge 0 multiplicity 1
 C        -0.068299         0.340862        -0.283003
 C         1.338684        -0.081296         0.099711
 C         2.199824         0.738765         1.150363
 C         3.407215         0.543692         0.249692
 C         3.333323        -0.927586        -0.324749
 O         4.430000        -1.687301        -0.745084
 C         1.896263        -1.462634         0.207091
 C         2.518678         0.268213        -0.922859
 O         2.394488         1.148010        -1.962458
 H        -0.742184         0.611357         0.477502
 H         0.073770         1.189265        -1.025648
 H        -0.616235        -0.500466        -0.913332
 H         1.881084         1.740666         1.111683
 H         2.203751         0.448464         2.286859
 H         4.418989         1.014161         0.119505
 H         4.917408        -1.674489        -0.013765
 H         1.383678        -2.209852        -0.559943
 H         1.905655        -1.805267         1.238868
 H         2.603405         0.801626        -2.816221
