19
Iteration:  2792charge 0 multiplicity 1
 C        -0.100135         0.190572        -0.360134
 C         1.355925         0.034841         0.144325
 C         2.107893         0.632953         1.345360
 C         3.385623         0.623764         0.421922
 C         3.235521        -0.851917        -0.277036
 O         4.248830        -1.563082        -0.801224
 C         1.913913        -1.511702         0.073402
 C         2.554824         0.418956        -0.806623
 O         2.737184         0.957404        -2.126470
 H        -0.743068        -0.550895         0.140829
 H        -0.638009         1.237388        -0.275683
 H        -0.044157        -0.216811        -1.470575
 H         1.771114         1.580240         1.608908
 H         2.162761         0.106151         2.258547
 H         4.440676         1.062254         0.491258
 H         4.095145        -1.641687        -1.716649
 H         1.670162        -1.981378        -0.896423
 H         1.774852        -2.242919         0.906070
 H         3.026950         1.917330        -1.995241
