19
Iteration:  4811
 C        -0.002648         0.302477        -0.410951
 C         1.298987        -0.049431         0.146483
 C         2.006576         0.658627         1.303074
 C         3.310320         0.470572         0.522937
 C         3.213456        -0.873031        -0.301627
 O         4.344178        -1.579180        -0.906068
 C         1.878763        -1.467064         0.120495
 C         2.565781         0.441169        -0.817332
 O         2.808900         0.958878        -2.046551
 H        -0.910876         0.082861         0.203087
 H        -0.047891         1.378670        -0.575172
 H        -0.144815        -0.293212        -1.342277
 H         1.720714         1.685070         1.418298
 H         2.080737         0.396536         2.372772
 H         4.270439         0.994996         0.735427
 H         4.434661        -1.597367        -1.816625
 H         1.420928        -2.122365        -0.703130
 H         1.981676        -2.002408         1.143837
 H         2.231631         1.624238        -2.250050
