19
Iteration:   717
 C        -0.231133         0.151754        -0.003816
 C         1.277832         0.025735         0.061008
 C         2.086843         0.776337         1.167191
 C         3.379596         0.632806         0.293087
 C         3.227386        -0.909202        -0.222491
 O         4.270658        -1.515154        -0.896929
 C         1.905040        -1.459441         0.157735
 C         2.603909         0.337849        -0.906583
 O         2.833336         0.952566        -2.167714
 H        -0.609571        -0.520172         0.754342
 H        -0.658922         1.163505         0.246614
 H        -0.482330        -0.163932        -1.048382
 H         1.880558         1.849727         1.368066
 H         2.179149         0.353566         2.220482
 H         4.295021         1.245886         0.484262
 H         5.088203        -1.748125        -0.408621
 H         1.469522        -2.097752        -0.730215
 H         1.772587        -2.012880         1.096372
 H         3.141431         0.296966        -2.816603
