19
Iteration:   203
 C        -0.009621         0.321703        -0.227066
 C         1.333696        -0.051110         0.138378
 C         2.162462         0.763219         1.200344
 C         3.400520         0.532402         0.382770
 C         3.197097        -0.887967        -0.380207
 O         4.347540        -1.562693        -0.802640
 C         1.930419        -1.511255         0.148997
 C         2.505772         0.314170        -0.869872
 O         2.475190         0.959855        -2.110818
 H        -0.539386         0.754861         0.546051
 H         0.121283         1.095263        -0.998699
 H        -0.629941        -0.508971        -0.690670
 H         2.017735         1.883402         1.101306
 H         2.143088         0.482399         2.237817
 H         4.397333         0.984390         0.363593
 H         4.918203        -1.578635        -0.055723
 H         1.532216        -2.150151        -0.653115
 H         1.920130        -2.122683         1.100221
 H         3.431843         1.055660        -2.363675
