19
Iteration:  4629charge 0 multiplicity 1
 C        -0.099066         0.258862        -0.365480
 C         1.355497        -0.008327         0.010798
 C         2.052213         0.654081         1.262278
 C         3.331692         0.492801         0.523210
 C         3.176898        -0.896578        -0.344984
 O         4.391260        -1.633533        -0.810425
 C         1.902027        -1.525072         0.112539
 C         2.618644         0.489299        -0.804052
 O         2.736807         1.085529        -2.009706
 H        -0.799290         0.460573         0.567087
 H        -0.331112         1.277317        -0.896582
 H        -0.389192        -0.605604        -1.027206
 H         1.599428         1.690124         1.395164
 H         1.868684         0.223362         2.200641
 H         4.310287         0.853639         0.808260
 H         4.719260        -1.199037        -1.673713
 H         1.631678        -2.292000        -0.687278
 H         1.738171        -1.824646         1.152695
 H         2.291845         0.633186        -2.744849
