19
Iteration:  1134charge 0 multiplicity 1
 C        -0.105725         0.225789        -0.227235
 C         1.362465         0.004439         0.116429
 C         2.101041         0.706489         1.259191
 C         3.388366         0.651087         0.490759
 C         3.195536        -0.853403        -0.362871
 O         4.374600        -1.419513        -0.795939
 C         1.983508        -1.526894         0.131676
 C         2.598557         0.356669        -0.824381
 O         2.570987         0.717355        -2.250143
 H        -0.736907        -0.124258         0.608662
 H        -0.349108         1.269410        -0.437004
 H        -0.323302        -0.417792        -1.055673
 H         1.515793         1.669769         1.341889
 H         2.223218         0.390471         2.288772
 H         4.378116         0.967217         0.693435
 H         4.712644        -0.781334        -1.418204
 H         1.442865        -2.250722        -0.593900
 H         2.098670        -1.970455         1.158599
 H         2.359831         1.730577        -2.160996
