19
Iteration:   350
 C        -0.097320         0.232361        -0.070307
 C         1.331253        -0.030325         0.093347
 C         2.141321         0.729655         1.225891
 C         3.327538         0.584445         0.364572
 C         3.135392        -0.795917        -0.281682
 O         4.204488        -1.430504        -0.932523
 C         1.900971        -1.448803         0.155728
 C         2.546513         0.374976        -0.889494
 O         2.898874         0.809863        -2.164360
 H        -0.648388        -0.276718         0.848070
 H        -0.355715         1.277300         0.031265
 H        -0.531151        -0.139790        -0.961936
 H         1.761393         1.788785         1.164798
 H         2.273705         0.373778         2.238938
 H         4.271842         1.017717         0.444183
 H         4.807614        -1.679211        -0.299284
 H         1.513605        -2.081048        -0.690894
 H         1.952363        -2.174262         1.064428
 H         2.609084         0.102679        -2.780251
