19
Iteration:  4861charge 0 multiplicity 1
 C        -0.144916         0.248374        -0.256748
 C         1.323777         0.024046         0.109187
 C         2.006179         0.607101         1.280136
 C         3.376424         0.490351         0.497924
 C         3.207385        -0.866016        -0.280891
 O         4.383576        -1.508582        -0.809539
 C         1.824847        -1.458119         0.001282
 C         2.606409         0.428466        -0.860840
 O         2.801158         0.871991        -2.107132
 H        -0.856206         0.359371         0.513825
 H        -0.146402         1.274687        -0.676319
 H        -0.558601        -0.444303        -0.991339
 H         1.762747         1.703370         1.435389
 H         1.748721         0.202842         2.267298
 H         4.392721         0.749149         0.816577
 H         4.620335        -1.264649        -1.792867
 H         1.397778        -1.789056        -0.908894
 H         1.789469        -2.109645         0.811619
 H         3.231743         1.832452        -1.989535
