19
Iteration:  2871
 C        -0.161858         0.272850        -0.188892
 C         1.330512         0.030204         0.096554
 C         2.111607         0.589928         1.307589
 C         3.333932         0.551792         0.372181
 C         3.250674        -0.835539        -0.274507
 O         4.403298        -1.505595        -0.693517
 C         1.854449        -1.451138        -0.054264
 C         2.565327         0.377308        -0.863341
 O         2.783929         0.909941        -2.140645
 H        -0.871835        -0.210851         0.573006
 H        -0.526332         1.348277        -0.289072
 H        -0.466598        -0.328578        -1.193960
 H         1.922152         1.612874         1.570544
 H         2.253015        -0.099844         2.105516
 H         4.210508         1.109215         0.535781
 H         4.063799        -2.111510        -1.521483
 H         1.475190        -1.840172        -1.060880
 H         1.744643        -2.243970         0.702611
 H         2.530825         1.899680        -2.117182
