19
Iteration:  2838charge 0 multiplicity 1
 C        -0.109496         0.318015        -0.138452
 C         1.336526         0.000274         0.012291
 C         2.032241         0.678146         1.163258
 C         3.246580         0.334489         0.488382
 C         3.188270        -0.933959        -0.385423
 O         4.442433        -1.434241        -0.750490
 C         1.872681        -1.561454         0.144008
 C         2.661838         0.402345        -0.905674
 O         2.770914         0.982890        -2.161615
 H        -0.674246        -0.465165         0.457176
 H        -0.389916         1.334430         0.261083
 H        -0.392494         0.174733        -1.286664
 H         1.871903         1.739575         1.212802
 H         1.776598         0.370838         2.128618
 H         4.149310         0.712491         0.923364
 H         4.284345        -1.235184        -1.603262
 H         1.118152        -2.228663        -0.392493
 H         2.109045        -1.953765         1.135405
 H         2.735411         1.940880        -2.092187
