19
Iteration:  4612charge 0 multiplicity 1
 C        -0.086570         0.258229        -0.280803
 C         1.320426        -0.039840         0.022630
 C         1.974224         0.637343         1.274947
 C         3.344287         0.462142         0.495417
 C         3.263481        -0.850337        -0.331363
 O         4.268757        -1.616375        -0.723240
 C         1.954854        -1.471243         0.058043
 C         2.654309         0.376267        -0.887749
 O         2.709661         1.144301        -2.086218
 H        -0.679781         0.241347         0.591673
 H        -0.141148         1.254663        -0.614272
 H        -0.558011        -0.292599        -1.089589
 H         1.804026         1.676013         1.273650
 H         1.928821        -0.017145         2.260088
 H         4.356601         0.875661         0.736563
 H         5.036633        -1.130462        -1.107748
 H         1.473048        -1.982740        -0.752498
 H         2.115719        -2.087704         0.973067
 H         2.641329         0.576913        -2.831530
