19
Iteration:  3661charge 0 multiplicity 1
 C        -0.091025         0.183871        -0.276086
 C         1.321690         0.053979         0.054169
 C         2.046589         0.637233         1.295005
 C         3.359725         0.468379         0.569388
 C         3.176780        -0.826714        -0.321738
 O         4.242519        -1.397260        -0.956698
 C         1.862557        -1.401475         0.078033
 C         2.618107         0.456231        -0.755727
 O         2.868445         0.726421        -2.139947
 H        -0.830517        -0.070106         0.684457
 H        -0.275347         1.235935        -0.654776
 H        -0.346472        -0.545872        -1.023083
 H         1.835807         1.589450         1.630078
 H         1.966755         0.092128         2.187050
 H         4.403500         0.606622         0.974198
 H         4.379228        -0.823290        -1.696719
 H         1.297810        -2.097419        -0.545731
 H         1.832110        -1.773184         1.130663
 H         3.166498         1.684152        -2.166664
