19
Iteration:  2843charge 0 multiplicity 1
 C        -0.125783         0.290264        -0.156168
 C         1.336177        -0.016865         0.003537
 C         2.054418         0.664998         1.162803
 C         3.298897         0.342303         0.464123
 C         3.163865        -0.905331        -0.408576
 O         4.427723        -1.421051        -0.704123
 C         1.841049        -1.534272         0.112056
 C         2.635162         0.412515        -0.861704
 O         2.787586         0.967881        -2.170630
 H        -0.774546        -0.351459         0.427509
 H        -0.279724         1.281752         0.236014
 H        -0.492266         0.115503        -1.090148
 H         1.922401         1.817169         1.326988
 H         1.922363         0.231139         2.263229
 H         4.236074         0.663885         0.961384
 H         4.389247        -1.338607        -1.813790
 H         1.266307        -2.280781        -0.406948
 H         2.051012        -1.879994         1.148514
 H         2.612246         1.972694        -2.159243
