19
Iteration:   652charge 0 multiplicity 1
 C        -0.072192         0.220655        -0.240199
 C         1.385693        -0.036812         0.099521
 C         2.151193         0.780696         1.114948
 C         3.345375         0.528962         0.280501
 C         3.295559        -0.926781        -0.248140
 O         4.360164        -1.595546        -0.793436
 C         1.963626        -1.450869         0.196906
 C         2.514338         0.270549        -0.910112
 O         2.579679         1.121790        -2.048582
 H        -0.714462         0.250937         0.680540
 H        -0.197800         1.294846        -0.559766
 H        -0.622443        -0.347570        -0.992796
 H         2.023427         1.792843         0.997432
 H         2.086083         0.413376         2.149570
 H         4.358300         1.053204         0.411152
 H         4.765734        -1.985856        -0.093245
 H         1.466739        -2.232297        -0.485173
 H         1.699347        -1.929784         1.146772
 H         1.834955         0.666051        -2.610733
