19
Iteration:  2606
 C        -0.113512         0.275873        -0.327049
 C         1.287576        -0.033983        -0.003644
 C         2.066390         0.603845         1.225322
 C         3.390318         0.408239         0.434697
 C         3.241227        -0.874091        -0.354002
 O         4.388019        -1.500345        -0.745500
 C         1.896606        -1.474623         0.223339
 C         2.591230         0.341063        -0.902038
 O         2.689389         1.158666        -2.023090
 H        -0.752222        -0.389641         0.103156
 H        -0.352613         1.267251         0.058800
 H        -0.324890         0.271412        -1.412599
 H         1.745794         1.676162         1.569022
 H         1.913052         0.022486         2.224962
 H         4.305139         0.961495         0.512160
 H         4.470365        -1.875720        -1.708058
 H         1.361411        -2.252294        -0.367671
 H         1.948056        -1.770964         1.305286
 H         2.868462         0.638262        -2.844967
