19
Iteration:  4723charge 0 multiplicity 1
 C        -0.161928         0.241587        -0.200577
 C         1.341625        -0.033389        -0.053164
 C         2.109441         0.573601         1.205275
 C         3.451965         0.521610         0.399420
 C         3.238446        -0.887411        -0.332250
 O         4.335080        -1.602567        -0.522243
 C         1.835071        -1.476306        -0.052360
 C         2.648105         0.452652        -0.861823
 O         2.615549         1.157544        -2.093087
 H        -0.731026        -0.322005         0.478939
 H        -0.334308         1.228863         0.095828
 H        -0.433135         0.127182        -1.217203
 H         1.650540         1.580042         1.293297
 H         2.229080         0.073501         2.249637
 H         4.391149         1.057372         0.442577
 H         4.284506        -2.123860        -1.309151
 H         1.769058        -1.916657        -1.041056
 H         1.660013        -2.178777         0.799377
 H         3.483060         0.923189        -2.495790
