19
Iteration:   979charge 0 multiplicity 1
 C        -0.131414         0.328433        -0.310153
 C         1.360786        -0.045369         0.087618
 C         2.159875         0.711596         1.283595
 C         3.462013         0.574159         0.429386
 C         3.238142        -0.882069        -0.310109
 O         4.383434        -1.415914        -0.930851
 C         1.943300        -1.507500         0.205644
 C         2.557742         0.352087        -0.841463
 O         2.566283         0.787146        -2.125911
 H        -0.804083         0.279148         0.544684
 H        -0.202340         1.457885        -0.601098
 H        -0.599558        -0.249502        -1.225511
 H         1.585335         1.641401         1.563408
 H         2.124770         0.068762         2.103633
 H         4.366879         1.202692         0.590908
 H         4.892664        -1.804882        -0.270677
 H         1.439135        -2.205170        -0.570142
 H         1.929357        -1.948355         1.241314
 H         1.729345         1.267281        -2.316091
