19
Iteration:  4486charge 0 multiplicity 1
 C        -0.081968         0.180047        -0.383390
 C         1.341288        -0.013398         0.080609
 C         2.113135         0.654253         1.245700
 C         3.364772         0.477395         0.475510
 C         3.139173        -0.862084        -0.343596
 O         4.327152        -1.440637        -0.803710
 C         1.908685        -1.485022         0.169683
 C         2.616096         0.391089        -0.835989
 O         2.730007         1.076202        -2.053845
 H        -0.859819        -0.160894         0.331153
 H        -0.325479         1.290665        -0.445745
 H        -0.287988        -0.222764        -1.373544
 H         1.659199         1.732151         1.325184
 H         1.937185         0.319752         2.352711
 H         4.408650         0.648816         0.728844
 H         4.000798        -2.149502        -1.464442
 H         1.458281        -2.362503        -0.431623
 H         1.990943        -1.820366         1.229688
 H         3.029552         0.490850        -2.733403
