19
Iteration:  2696charge 0 multiplicity 1
 C        -0.161766         0.360289        -0.234639
 C         1.324313        -0.050828        -0.021469
 C         2.085759         0.512685         1.276166
 C         3.314166         0.462641         0.443537
 C         3.250972        -0.872616        -0.392049
 O         4.416200        -1.532175        -0.610488
 C         1.927138        -1.473386         0.064508
 C         2.625744         0.428994        -0.965821
 O         2.613751         1.025759        -2.129762
 H        -0.639909         0.167009         0.703787
 H        -0.308721         1.347609        -0.467439
 H        -0.730278        -0.255705        -0.945994
 H         1.761304         1.633701         1.610952
 H         2.077436         0.040537         2.331054
 H         4.348645         0.838925         0.738595
 H         4.584333        -1.626021        -1.577335
 H         1.563355        -2.185380        -0.733261
 H         1.920336        -1.943248         1.043660
 H         3.282025         1.698643        -2.207692
