19
Iteration:   817charge 0 multiplicity 1
 C        -0.062096         0.270604        -0.322236
 C         1.393701        -0.053939         0.105344
 C         2.146084         0.760145         1.234670
 C         3.397580         0.517115         0.458056
 C         3.262686        -0.853275        -0.333343
 O         4.346500        -1.627709        -0.796050
 C         1.965044        -1.471993         0.163454
 C         2.632047         0.374392        -0.903047
 O         2.346458         1.010678        -2.113767
 H        -0.774013         0.173492         0.584753
 H        -0.115357         1.288279        -0.697858
 H        -0.342533        -0.381876        -1.098646
 H         1.724485         1.721195         1.065933
 H         2.065896         0.360753         2.336454
 H         4.392862         0.846540         0.547091
 H         5.151059        -1.244236        -0.429257
 H         1.489795        -2.324843        -0.411830
 H         2.142780        -1.901641         1.163629
 H         3.079093         0.845710        -2.644778
