19
Iteration:  1608
 C        -0.175226         0.204565        -0.185221
 C         1.311590        -0.102166         0.020833
 C         2.048129         0.712976         1.137321
 C         3.303227         0.485058         0.293988
 C         3.199666        -0.905669        -0.354251
 O         4.470836        -1.513327        -0.836592
 C         1.944040        -1.550131         0.246801
 C         2.565547         0.321153        -0.950765
 O         2.734893         1.156598        -2.036713
 H        -0.749910        -0.539955         0.528566
 H        -0.483991         1.114314         0.182485
 H        -0.467994         0.216355        -1.180908
 H         1.741029         1.765213         1.126240
 H         1.932319         0.348444         2.217277
 H         4.250419         1.062826         0.455939
 H         4.633240        -2.087950        -0.163014
 H         1.503511        -2.162081        -0.515464
 H         1.822897        -2.020127         1.245160
 H         2.904844         2.049965        -1.746346
