19
Iteration:  1431
 C        -0.108820        -0.033379        -0.213273
 C         1.405967        -0.004862         0.047515
 C         2.130605         0.722966         1.158771
 C         3.368560         0.641646         0.336625
 C         3.286468        -0.821477        -0.339610
 O         4.316328        -1.739529        -0.666029
 C         1.939454        -1.399155         0.106258
 C         2.598289         0.430157        -0.938002
 O         2.483714         1.124196        -2.113726
 H        -0.758337        -0.672626         0.633917
 H        -0.365052         1.022094        -0.089569
 H        -0.455534        -0.566170        -1.081880
 H         1.842353         1.802220         1.384879
 H         2.148468         0.042414         2.037182
 H         4.416500         1.125727         0.512916
 H         5.243841        -1.248509        -0.555719
 H         1.533468        -2.014338        -0.680394
 H         1.850984        -1.912473         1.050140
 H         3.022229         1.863323        -1.945696
