19
Iteration:  4145charge 0 multiplicity 1
 C        -0.123021         0.241980        -0.352319
 C         1.306721        -0.110334         0.094192
 C         2.079860         0.803326         1.261960
 C         3.369839         0.586697         0.441293
 C         3.209531        -0.889404        -0.298244
 O         4.324017        -1.642517        -0.841732
 C         1.926134        -1.509794         0.134338
 C         2.581040         0.338763        -0.842630
 O         2.729204         0.983500        -2.055504
 H        -0.924266        -0.202678         0.229887
 H        -0.194735         1.393354        -0.136893
 H        -0.369406        -0.061924        -1.427003
 H         1.809714         1.755587         1.182714
 H         2.041743         0.379129         2.162467
 H         4.388054         1.049631         0.627354
 H         4.498348        -0.963159        -1.572434
 H         1.484375        -2.171402        -0.621051
 H         1.828865        -2.015467         1.099164
 H         3.119747         1.861674        -1.753748
