19
Iteration:  2440
 C        -0.078860         0.192691        -0.338793
 C         1.356462        -0.016342         0.053296
 C         1.987585         0.615104         1.290853
 C         3.341192         0.620533         0.514831
 C         3.302140        -0.846507        -0.335958
 O         4.275922        -1.634850        -0.778633
 C         1.988881        -1.471079         0.052487
 C         2.669770         0.398792        -0.844839
 O         2.611414         1.051710        -2.047912
 H        -0.741693        -0.503281         0.048963
 H        -0.428979         1.264639        -0.149142
 H        -0.066768         0.137236        -1.397180
 H         1.580599         1.610853         1.619565
 H         2.010024         0.111945         2.261432
 H         4.345106         0.914137         0.716144
 H         4.111986        -1.580781        -1.643323
 H         1.731742        -2.041807        -0.802486
 H         1.892866        -2.047909         0.971845
 H         3.294134         1.574476        -2.400808
