19
Iteration:  3555
 C        -0.100187         0.274096        -0.221543
 C         1.318519         0.037592        -0.001817
 C         2.190337         0.660457         1.334250
 C         3.348253         0.478172         0.316181
 C         3.258397        -0.892488        -0.382884
 O         4.420867        -1.643478        -0.466145
 C         1.877140        -1.467226        -0.112138
 C         2.527855         0.379234        -0.913671
 O         2.539815         1.100145        -2.102630
 H        -0.605782        -0.287537         0.504811
 H        -0.288016         1.350076        -0.212789
 H        -0.216134        -0.034446        -1.324922
 H         2.069537         1.801911         1.468845
 H         2.509508        -0.058145         2.126884
 H         4.412515         0.862551         0.350938
 H         4.233915        -2.369938        -1.241585
 H         1.636899        -1.987300        -1.051175
 H         1.713458        -2.206976         0.737845
 H         2.848826         2.015738        -1.774903
