19
Iteration:  2757charge 0 multiplicity 1
 C        -0.125298         0.267843        -0.330780
 C         1.336126         0.094973         0.019643
 C         2.067919         0.634794         1.296315
 C         3.460909         0.354177         0.491660
 C         3.182160        -0.848308        -0.377895
 O         4.412868        -1.482545        -0.768452
 C         1.896576        -1.491597         0.113463
 C         2.627313         0.451506        -0.804856
 O         2.664088         0.964906        -2.113286
 H        -0.658705        -0.251248         0.525423
 H        -0.667521         1.279573        -0.662933
 H        -0.240627        -0.389544        -1.273688
 H         1.877927         1.653702         1.335706
 H         1.776891         0.081593         2.171466
 H         4.403318         0.698220         0.841577
 H         4.244706        -1.971734        -1.489431
 H         1.406942        -2.141665        -0.589490
 H         1.891784        -2.006471         1.115756
 H         2.131801         1.802512        -2.060062
