19
Iteration:  1541charge 0 multiplicity 1
 C        -0.108147         0.211741        -0.220765
 C         1.382821         0.008078         0.051384
 C         2.028059         0.578272         1.306976
 C         3.345432         0.582284         0.474818
 C         3.286917        -0.755767        -0.272621
 O         4.294777        -1.477979        -0.814182
 C         1.974332        -1.424436         0.014475
 C         2.590814         0.402684        -0.805336
 O         2.669998         0.766827        -2.180430
 H        -0.756680         0.035448         0.799609
 H        -0.391220         1.210623        -0.485763
 H        -0.473878        -0.370655        -1.019309
 H         1.686247         1.596930         1.656892
 H         2.145364        -0.123591         2.161990
 H         4.271555         0.941531         0.677880
 H         4.989684        -0.865364        -1.288892
 H         1.726383        -1.794563        -0.954365
 H         1.772029        -2.171409         0.781295
 H         2.328028         1.705774        -2.308042
