19
Iteration:  3825
 C        -0.082440         0.259245        -0.355339
 C         1.355086        -0.006378         0.064204
 C         2.079760         0.725950         1.248200
 C         3.337602         0.453445         0.439198
 C         3.180404        -0.947581        -0.302990
 O         4.390983        -1.501008        -0.817705
 C         1.859857        -1.508991         0.160195
 C         2.646831         0.284502        -0.857907
 O         2.671530         1.040975        -2.074932
 H        -0.793818         0.133396         0.499708
 H        -0.103252         1.342563        -0.688613
 H        -0.334263        -0.375165        -1.226833
 H         1.779151         1.892185         1.473879
 H         2.007998         0.399914         2.360000
 H         4.285043         0.886337         0.610073
 H         4.139420        -1.786433        -1.758494
 H         1.203021        -2.149813        -0.413710
 H         1.887385        -1.924546         1.183907
 H         3.142572         1.843378        -1.809722
