19
Iteration:  3973
 C        -0.043087         0.200581        -0.381879
 C         1.350430         0.013804         0.058598
 C         2.052783         0.749569         1.222109
 C         3.393988         0.468924         0.512494
 C         3.263535        -0.894341        -0.391852
 O         4.332338        -1.652755        -0.752796
 C         1.929035        -1.502410         0.155610
 C         2.609289         0.427489        -0.859709
 O         2.599103         1.073235        -2.053095
 H        -0.743487        -0.074372         0.448698
 H        -0.264795         1.207764        -0.580183
 H         0.023081        -0.217353        -1.367074
 H         1.866705         1.864674         1.193871
 H         1.977657         0.473774         2.300931
 H         4.313940         0.997146         0.609151
 H         4.119776        -2.407132        -1.413869
 H         1.382479        -2.131322        -0.604959
 H         1.970648        -2.062729         1.101661
 H         2.516368         2.084010        -1.879427
