19
Iteration:  2039
 C        -0.123186         0.300618        -0.220655
 C         1.350873        -0.045795         0.027416
 C         2.128180         0.652624         1.210018
 C         3.362252         0.417536         0.364489
 C         3.205159        -0.935866        -0.393688
 O         4.481560        -1.480796        -0.628464
 C         1.830621        -1.518894         0.055701
 C         2.569335         0.327455        -0.881875
 O         2.660533         1.135947        -2.021299
 H        -0.943481        -0.395035         0.240397
 H        -0.382699         1.322230         0.074798
 H        -0.276448         0.145074        -1.340445
 H         1.862093         1.662985         1.500259
 H         2.046486         0.086720         2.171487
 H         4.429270         0.814885         0.553120
 H         4.774063        -1.464214        -1.643157
 H         1.293391        -2.162440        -0.660085
 H         1.795830        -2.105129         0.970525
 H         1.993436         1.273335        -2.701726
