19
Iteration:  3594charge 0 multiplicity 1
 C        -0.047080         0.323570        -0.210381
 C         1.384981        -0.013775         0.005920
 C         2.084529         0.667129         1.248304
 C         3.321868         0.392720         0.428908
 C         3.201748        -0.888464        -0.390488
 O         4.424573        -1.580280        -0.600576
 C         1.893682        -1.486462         0.034413
 C         2.601195         0.359054        -0.981264
 O         2.634191         1.094742        -2.115639
 H        -0.800257        -0.291308         0.499625
 H        -0.386162         1.350313         0.119293
 H        -0.417431         0.156353        -1.235781
 H         1.806792         1.684775         1.419609
 H         1.820930         0.097298         2.123431
 H         4.323349         0.764195         0.622636
 H         4.417951        -2.074618        -1.425373
 H         1.454420        -2.249140        -0.622086
 H         1.906287        -1.912117         1.043229
 H         2.386374         2.025815        -2.014835
