19
Iteration:  3164
 C        -0.065916         0.322720        -0.298634
 C         1.320926        -0.128926         0.053967
 C         2.020316         0.690689         1.140352
 C         3.326371         0.487955         0.386126
 C         3.303356        -0.869675        -0.368402
 O         4.397871        -1.590296        -0.760719
 C         1.943857        -1.496434         0.183580
 C         2.530502         0.313800        -0.876977
 O         2.682419         1.065079        -1.974727
 H        -1.026228        -0.075241         0.347877
 H         0.002436         1.499899        -0.360434
 H        -0.379503         0.006280        -1.360397
 H         1.751078         1.779839         1.166344
 H         1.889531         0.446600         2.146352
 H         4.109592         1.294262         0.327629
 H         4.221809        -2.218360        -1.398647
 H         1.457388        -2.223387        -0.548498
 H         2.072668        -1.970391         1.186384
 H         2.804769         2.042812        -1.679698
