19
Iteration:   702charge 0 multiplicity 1
 C        -0.194886         0.057634        -0.027030
 C         1.334139         0.044818         0.055563
 C         2.172794         0.750905         1.189518
 C         3.394390         0.551620         0.342245
 C         3.249558        -0.768498        -0.270949
 O         4.261517        -1.606533        -0.851841
 C         1.844864        -1.354835         0.182625
 C         2.551347         0.328528        -0.995864
 O         2.803687         1.026266        -2.144342
 H        -0.658094        -0.538286         0.756096
 H        -0.664838         1.048528         0.034085
 H        -0.647519        -0.386233        -0.999541
 H         1.781646         1.869022         1.179485
 H         2.040133         0.163712         2.115045
 H         4.326033         1.090915         0.122243
 H         5.067021        -1.694097        -0.093007
 H         1.508333        -2.045570        -0.565965
 H         1.632460        -1.894259         1.136021
 H         3.082021         0.386222        -2.770432
