19
Iteration:   480
 C        -0.049915         0.201350        -0.182086
 C         1.325987        -0.072612         0.200225
 C         2.159178         0.786747         1.163585
 C         3.396661         0.548815         0.353073
 C         3.190586        -0.863919        -0.348609
 O         4.228180        -1.569725        -0.819784
 C         1.907939        -1.517372         0.182572
 C         2.595535         0.433863        -0.891136
 O         2.716901         0.984064        -2.181021
 H        -0.744733        -0.258572         0.629569
 H        -0.252520         1.262464        -0.159686
 H        -0.362336        -0.218526        -1.068044
 H         1.826271         1.909763         1.310660
 H         2.200095         0.384329         2.221575
 H         4.342440         1.113289         0.354800
 H         4.974213        -1.493267        -0.072627
 H         1.549082        -2.038394        -0.608691
 H         1.773950        -2.049917         1.138918
 H         1.996894         0.586182        -2.777161
