19
Iteration:  3983
 C        -0.009564         0.211791        -0.401006
 C         1.387970        -0.041414         0.133875
 C         2.110688         0.784593         1.244552
 C         3.373856         0.488231         0.489413
 C         3.240336        -0.881728        -0.322469
 O         4.406499        -1.702751        -0.766190
 C         1.899207        -1.452746         0.091435
 C         2.552533         0.371987        -0.837740
 O         2.588311         1.113375        -2.075641
 H        -0.787705        -0.187487         0.228243
 H        -0.134599         1.189278        -0.658739
 H        -0.233726        -0.471942        -1.206130
 H         1.806579         1.868490         0.973650
 H         1.799327         0.403985         2.264492
 H         4.311699         0.955771         0.659319
 H         3.957659        -2.277219        -1.391243
 H         1.296958        -1.948083        -0.699822
 H         1.766839        -1.942634         1.053294
 H         2.384745         2.097037        -1.829120
