19
Iteration:   671charge 0 multiplicity 1
 C        -0.132481         0.144232        -0.118963
 C         1.370850        -0.005745         0.115150
 C         2.129851         0.841089         1.185134
 C         3.385884         0.548135         0.377606
 C         3.159462        -0.857089        -0.418304
 O         4.337185        -1.663010        -0.775131
 C         1.922800        -1.511080         0.210487
 C         2.640103         0.380664        -0.998768
 O         2.663192         1.122140        -2.119248
 H        -0.718645        -0.092260         0.688095
 H        -0.512306         1.168464        -0.424046
 H        -0.361726        -0.577306        -1.026555
 H         1.664024         1.925006         1.104853
 H         1.904483         0.525381         2.245860
 H         4.467011         0.845576         0.313934
 H         4.878080        -1.863831        -0.013821
 H         1.370759        -2.333139        -0.427682
 H         2.086275        -1.941951         1.174901
 H         2.237514         0.552386        -2.862669
