19
Iteration:  4868charge 0 multiplicity 1
 C        -0.196086         0.302945        -0.226118
 C         1.241308        -0.019386         0.115396
 C         1.995501         0.667392         1.323218
 C         3.363601         0.489244         0.480919
 C         3.219799        -0.852307        -0.337086
 O         4.390861        -1.497911        -0.763678
 C         1.864733        -1.506246        -0.047008
 C         2.631805         0.367540        -0.831593
 O         2.833333         0.905469        -2.144175
 H        -0.810098         0.346428         0.742848
 H        -0.120550         1.285773        -0.641147
 H        -0.471044        -0.334563        -1.037855
 H         1.721932         1.768462         1.284414
 H         1.970560         0.013217         2.251990
 H         4.369836         0.761923         0.736904
 H         4.446995        -1.354229        -1.760793
 H         1.368379        -2.023381        -0.956940
 H         1.920136        -2.183935         0.911875
 H         3.306438         1.831889        -2.038674
