19
Iteration:   186
 C        -0.235269         0.296029        -0.169342
 C         1.351522         0.020593         0.036064
 C         2.143999         0.745867         1.214666
 C         3.430751         0.523818         0.325984
 C         3.277405        -0.897703        -0.260966
 O         4.343953        -1.523306        -0.886982
 C         1.885098        -1.433060         0.166564
 C         2.598678         0.316419        -0.882387
 O         2.599974         0.885421        -2.101842
 H        -0.688232         0.663398         0.882070
 H        -0.510149         1.064798        -0.919068
 H        -0.716035        -0.601577        -0.437560
 H         1.761043         1.778804         1.265067
 H         2.134866         0.173261         2.216251
 H         4.392946         1.114087         0.368398
 H         5.081856        -1.836621        -0.188428
 H         1.445010        -2.089982        -0.593652
 H         1.746924        -1.962356         1.127591
 H         3.552709         1.066052        -2.380994
