19
Iteration:   756charge 0 multiplicity 1
 C        -0.123813         0.329385        -0.139642
 C         1.349056         0.025321         0.103475
 C         2.084943         0.714910         1.224320
 C         3.313677         0.483885         0.450752
 C         3.252121        -0.837086        -0.253797
 O         4.355293        -1.333017        -0.940000
 C         1.916939        -1.501247         0.185675
 C         2.599315         0.363393        -0.879506
 O         2.681335         0.787942        -2.198440
 H        -0.784322        -0.258205         0.545746
 H        -0.318889         1.404777        -0.119548
 H        -0.527003        -0.069737        -1.109379
 H         1.716544         1.784503         1.340648
 H         2.007060         0.231218         2.175256
 H         4.290435         1.050019         0.501840
 H         4.794738        -2.214478        -0.483632
 H         1.537974        -2.042735        -0.636644
 H         2.076144        -2.084448         1.136021
 H         2.651083         0.017111        -2.742159
