19
Iteration:  1937
 C        -0.119567         0.256462        -0.241742
 C         1.340762        -0.048720         0.024449
 C         2.038228         0.681168         1.234860
 C         3.337745         0.405992         0.517889
 C         3.195966        -0.921967        -0.383505
 O         4.523858        -1.398132        -0.728461
 C         1.874112        -1.560737         0.040404
 C         2.531510         0.324151        -0.878607
 O         2.633738         1.083099        -2.051084
 H        -0.747279         0.285029         0.749277
 H        -0.084660         1.312689        -0.419265
 H        -0.617881        -0.237939        -1.099852
 H         1.811817         1.716091         1.174541
 H         1.898067         0.167784         2.134468
 H         4.341361         0.610747         0.491609
 H         4.352758        -1.435143        -1.783888
 H         1.374251        -2.190055        -0.610283
 H         1.949249        -1.862137         1.067606
 H         3.551445         1.068855        -2.294268
