19
Iteration:  1521charge 0 multiplicity 1
 C        -0.097288         0.288031        -0.253933
 C         1.307775        -0.098376         0.132899
 C         2.086877         0.618157         1.318349
 C         3.337172         0.572814         0.496761
 C         3.233913        -0.789817        -0.327354
 O         4.361160        -1.418869        -0.934748
 C         1.955365        -1.565871         0.065656
 C         2.582692         0.434893        -0.823500
 O         2.678693         0.799909        -2.164232
 H        -0.942832         0.230954         0.698039
 H        -0.083331         1.333003        -0.488536
 H        -0.530646        -0.307470        -1.053226
 H         1.731185         1.615281         1.224607
 H         1.740315         0.143009         2.303890
 H         4.262836         1.013034         0.655947
 H         5.189980        -1.014068        -0.314223
 H         1.608290        -2.235693        -0.701904
 H         1.909563        -2.006457         1.065506
 H         2.337189         1.634019        -2.426442
