19
Iteration:  1565charge 0 multiplicity 1
 C        -0.152903         0.151648        -0.175168
 C         1.337737        -0.000248         0.039926
 C         2.076391         0.655443         1.266418
 C         3.382989         0.570940         0.507180
 C         3.262670        -0.800085        -0.315651
 O         4.438420        -1.484421        -0.743408
 C         1.852991        -1.473383        -0.020156
 C         2.574280         0.463243        -0.812854
 O         2.692685         0.868145        -2.203700
 H        -0.788953        -0.342622         0.759985
 H        -0.537789         1.156029        -0.245667
 H        -0.433596        -0.358394        -1.097300
 H         1.781877         1.654416         1.496987
 H         2.229194         0.021995         2.214110
 H         4.303114         1.062549         0.819227
 H         4.232178        -1.864731        -1.706944
 H         1.468645        -1.988038        -0.897929
 H         1.769064        -2.058085         0.894192
 H         2.612479         1.796221        -2.263534
