19
Iteration:  3211
 C        -0.095250         0.169932        -0.205128
 C         1.383093         0.087021         0.070184
 C         2.022693         0.594752         1.260194
 C         3.390278         0.438221         0.495807
 C         3.195430        -0.799886        -0.391386
 O         4.396738        -1.446602        -0.712679
 C         1.772771        -1.369860         0.061308
 C         2.596778         0.501594        -0.833611
 O         2.773453         0.793641        -2.202477
 H        -0.554628        -0.613604         0.465766
 H        -0.420352         1.207150         0.040974
 H        -0.477907        -0.041788        -1.338313
 H         1.749866         1.589070         1.493339
 H         1.879411         0.128669         2.259713
 H         4.418302         0.599741         0.654742
 H         4.503983        -1.770005        -1.697599
 H         1.273528        -1.915157        -0.773471
 H         1.652873        -1.921076         0.969654
 H         2.805351         1.752604        -2.223656
