19
Iteration:  2534
 C        -0.162953         0.306880        -0.206097
 C         1.355665        -0.033027        -0.077936
 C         2.020068         0.542103         1.203670
 C         3.367814         0.453846         0.555767
 C         3.274866        -0.804561        -0.367414
 O         4.414840        -1.545509        -0.630529
 C         1.936309        -1.493344         0.033645
 C         2.657947         0.444040        -0.907414
 O         2.666501         1.034541        -2.167854
 H        -0.583656         0.175539         0.923585
 H        -0.298291         1.331879        -0.557003
 H        -0.894563        -0.329361        -0.806242
 H         1.750664         1.490145         1.545135
 H         1.826732        -0.007442         2.112583
 H         4.294821         0.849452         0.770499
 H         4.259011        -2.060873        -1.551356
 H         1.667612        -2.191748        -0.817387
 H         1.864391        -1.936648         1.042038
 H         2.162398         1.893522        -2.005221
