19
Iteration:  4770charge 0 multiplicity 1
 C        -0.146687         0.335092        -0.294137
 C         1.313895        -0.015618         0.009466
 C         2.125207         0.582528         1.177356
 C         3.393929         0.395539         0.454985
 C         3.260324        -0.896938        -0.312020
 O         4.452015        -1.507869        -0.640611
 C         1.802706        -1.486862         0.037008
 C         2.612781         0.401236        -0.889800
 O         2.631542         1.034129        -2.097867
 H        -0.843921        -0.352228         0.248869
 H        -0.368768         1.280314         0.158249
 H        -0.238477         0.374225        -1.338020
 H         1.906945         1.743657         1.310333
 H         1.862896         0.120973         2.233659
 H         4.401162         0.723291         0.761220
 H         4.037858        -2.020101        -1.422749
 H         1.418827        -2.163084        -0.749723
 H         1.763593        -1.830567         1.056768
 H         3.117202         1.950101        -1.940854
