19
Iteration:  4495
 C        -0.078539         0.208386        -0.381961
 C         1.304948        -0.099804         0.061083
 C         2.045602         0.718251         1.324087
 C         3.418879         0.498026         0.454416
 C         3.192325        -0.838185        -0.290215
 O         4.313328        -1.462306        -0.846230
 C         1.881293        -1.515972         0.169295
 C         2.528345         0.418056        -0.833407
 O         2.783276         1.059558        -2.052275
 H        -0.891127        -0.405885         0.281364
 H        -0.264880         1.299620        -0.353952
 H        -0.101314        -0.131444        -1.451963
 H         1.958124         1.841958         1.316716
 H         2.103835         0.132102         2.180855
 H         4.414270         0.997102         0.609177
 H         4.079724        -2.339688        -1.336729
 H         1.446174        -2.250035        -0.580678
 H         2.033251        -1.869038         1.202949
 H         2.897977         0.545825        -2.828216
