19
Iteration:  3402charge 0 multiplicity 1
 C        -0.050098         0.341524        -0.159134
 C         1.301525        -0.079308         0.136430
 C         2.142293         0.653635         1.217565
 C         3.285575         0.444254         0.382739
 C         3.166031        -0.866340        -0.331854
 O         4.416129        -1.407145        -0.639564
 C         1.825146        -1.573634        -0.007934
 C         2.529623         0.413051        -0.890245
 O         2.800726         0.923701        -2.168320
 H        -0.745925        -0.375944         0.305135
 H        -0.211971         1.355145         0.277210
 H        -0.398962         0.242127        -1.294281
 H         1.792515         1.604817         1.335924
 H         2.039851         0.287697         2.236017
 H         4.316562         0.678093         0.453356
 H         4.295472        -1.740388        -1.643687
 H         1.429176        -1.956752        -0.927028
 H         1.631138        -2.222764         0.849626
 H         2.724661         1.891668        -2.135508
