19
Iteration:  1661charge 0 multiplicity 1
 C        -0.060254         0.089928        -0.336374
 C         1.397866         0.022395         0.113009
 C         2.127481         0.700434         1.318372
 C         3.431300         0.543437         0.437687
 C         3.213871        -0.820668        -0.339441
 O         4.328038        -1.632889        -0.685626
 C         1.906284        -1.489540         0.001261
 C         2.617969         0.444765        -0.850940
 O         2.534773         1.050335        -2.111326
 H        -0.769073        -0.457899         0.263967
 H        -0.470254         1.083764        -0.519864
 H        -0.045622        -0.427057        -1.275295
 H         1.603703         1.675304         1.539632
 H         2.092929         0.023968         2.146386
 H         4.521464         0.733688         0.598443
 H         4.598245        -1.339708        -1.521530
 H         1.403274        -1.904195        -0.855169
 H         1.669616        -1.918920         1.000167
 H         2.711527         1.990354        -2.045890
