19
Iteration:  4071
 C        -0.183234         0.316136        -0.118915
 C         1.305369        -0.032139        -0.012543
 C         2.058020         0.639656         1.208875
 C         3.362422         0.510782         0.446859
 C         3.244226        -0.872385        -0.222413
 O         4.392115        -1.394188        -0.733899
 C         1.879297        -1.467228        -0.047589
 C         2.540555         0.418984        -0.837926
 O         2.818043         0.785050        -2.098644
 H        -0.775611        -0.080482         0.699525
 H        -0.240145         1.362755         0.017242
 H        -0.563621        -0.004949        -1.092952
 H         1.764277         1.817755         0.999258
 H         2.073903        -0.187553         2.075509
 H         4.433791         0.861504         0.554504
 H         4.148819        -1.766883        -1.736012
 H         1.492307        -1.984837        -0.963015
 H         1.614313        -2.210251         0.728015
 H         2.952662         1.799500        -2.253460
