19
Iteration:  2731
 C        -0.064453         0.362477        -0.242284
 C         1.301375        -0.153633         0.065906
 C         2.071822         0.672953         1.225696
 C         3.286123         0.478472         0.340738
 C         3.245813        -0.928273        -0.295077
 O         4.478031        -1.479009        -0.720307
 C         1.870690        -1.538692         0.037085
 C         2.584782         0.274978        -0.852571
 O         2.691240         1.048123        -2.043061
 H        -0.736649         0.303333         0.653986
 H         0.056106         1.395000        -0.471124
 H        -0.526276        -0.064808        -1.084548
 H         1.660206         1.743744         0.890540
 H         2.064976         0.457231         2.366213
 H         4.140600         1.135441         0.605264
 H         4.401038        -1.797907        -1.578281
 H         1.487439        -1.988597        -0.911857
 H         1.621706        -2.185734         0.856931
 H         2.314114         1.896658        -1.765762
