19
Iteration:  3329
 C        -0.007186         0.152278        -0.357538
 C         1.360899         0.003865         0.105868
 C         2.110343         0.775619         1.280002
 C         3.361347         0.574195         0.390977
 C         3.228030        -0.895984        -0.359118
 O         4.254840        -1.701731        -0.686212
 C         1.950902        -1.498926         0.035939
 C         2.624328         0.413523        -0.866244
 O         2.569469         1.098071        -2.020785
 H        -0.782596        -0.151521         0.380246
 H        -0.104447         1.131009        -0.825029
 H        -0.110447        -0.539775        -1.077773
 H         1.661440         1.816920         1.512000
 H         2.195267         0.441176         2.315794
 H         4.383887         0.700484         0.660109
 H         4.312966        -1.782491        -1.748501
 H         1.507982        -1.895524        -0.944433
 H         1.922854        -2.233453         0.873942
 H         3.009799         1.904486        -1.888682
