19
Iteration:  4045charge 0 multiplicity 1
 C        -0.114706         0.358904        -0.172892
 C         1.329079        -0.015552         0.070333
 C         2.019184         0.609749         1.283216
 C         3.300943         0.496259         0.487016
 C         3.226705        -0.913327        -0.372837
 O         4.466838        -1.462623        -0.655976
 C         1.874810        -1.551195         0.055962
 C         2.577139         0.333140        -0.964169
 O         2.720951         0.968846        -2.224483
 H        -0.651754         0.316610         0.776655
 H        -0.359633         1.514500        -0.386063
 H        -0.496787        -0.126034        -1.107636
 H         1.748129         1.679456         1.444179
 H         1.966689        -0.053124         2.141879
 H         4.259883         0.928766         0.673431
 H         4.368175        -1.839496        -1.607543
 H         1.412972        -2.120494        -0.760133
 H         1.903067        -2.126826         1.002160
 H         3.027585         1.935515        -2.033612
