19
Iteration:  1095
 C        -0.203866         0.084712        -0.161634
 C         1.316874        -0.010759         0.118044
 C         2.123734         0.780528         1.197550
 C         3.413476         0.600133         0.325708
 C         3.302429        -0.808314        -0.274626
 O         4.398404        -1.536026        -0.727883
 C         1.928205        -1.462679         0.134092
 C         2.584003         0.351662        -0.945738
 O         2.689906         1.000878        -2.137259
 H        -0.610766        -0.560194         0.694368
 H        -0.746458         1.032150        -0.083775
 H        -0.534686        -0.374398        -1.107661
 H         1.704121         1.809516         1.216877
 H         2.078936         0.256412         2.205066
 H         4.276025         1.187175         0.375338
 H         4.180419        -2.127813        -1.382793
 H         1.593889        -2.121375        -0.615619
 H         1.975259        -1.904335         1.114914
 H         1.841345         0.979034        -2.597150
