19
Iteration:  3608charge 0 multiplicity 1
 C        -0.135569         0.346628        -0.246592
 C         1.317363         0.004634         0.033450
 C         2.023919         0.652058         1.224478
 C         3.372365         0.477658         0.436894
 C         3.243602        -0.914585        -0.360003
 O         4.398205        -1.538483        -0.738489
 C         1.923221        -1.570094         0.081201
 C         2.566249         0.367153        -0.817879
 O         2.742878         1.010758        -2.100702
 H        -0.699779        -0.336065         0.399513
 H        -0.202836         1.394763        -0.094214
 H        -0.432091         0.105628        -1.204322
 H         1.789176         1.843099         1.252037
 H         1.952531         0.307036         2.311994
 H         4.372140         0.992129         0.436096
 H         4.171738        -1.983430        -1.646857
 H         1.386418        -2.052208        -0.725440
 H         1.946762        -2.116187         1.065656
 H         2.467914         1.951117        -1.888190
