19
Iteration:  2288
 C        -0.170017         0.285516        -0.302738
 C         1.296576        -0.077281         0.060328
 C         1.966804         0.716350         1.261812
 C         3.410230         0.419195         0.503736
 C         3.314201        -0.877929        -0.356739
 O         4.408844        -1.495864        -0.927698
 C         1.879099        -1.530960         0.090222
 C         2.569322         0.333692        -0.797935
 O         2.714119         0.999418        -2.010020
 H        -0.827210         0.218855         0.608971
 H        -0.223911         1.284180        -0.662747
 H        -0.575367        -0.444816        -1.015825
 H         1.595812         1.697727         0.968659
 H         1.687030         0.395047         2.212556
 H         4.306690         0.965953         0.703905
 H         5.150055        -0.801949        -1.027132
 H         1.382644        -2.075093        -0.698202
 H         1.796690        -2.212791         0.967218
 H         3.282593         1.712739        -1.863810
