19
Iteration:  4576
 C        -0.213995         0.261820        -0.198786
 C         1.335986         0.005637         0.005673
 C         2.108328         0.638746         1.218534
 C         3.343182         0.512822         0.353680
 C         3.194144        -0.928507        -0.359713
 O         4.456167        -1.553499        -0.679142
 C         1.836262        -1.490294        -0.005796
 C         2.634499         0.407419        -0.913155
 O         2.700964         1.105296        -2.023040
 H        -0.752957        -0.425843         0.407722
 H        -0.310885         1.366260         0.047212
 H        -0.597143         0.102998        -1.223926
 H         1.730160         1.648689         1.498326
 H         2.119165         0.176351         2.271185
 H         4.317062         0.994068         0.380655
 H         4.725284        -1.961254         0.166969
 H         1.358660        -2.046350        -0.869299
 H         1.760154        -2.232411         0.834862
 H         3.014552         0.694504        -2.789937
