19
Iteration:  1090
 C        -0.222690         0.078138        -0.138843
 C         1.323381        -0.090279         0.073384
 C         2.110339         0.812241         1.195624
 C         3.400752         0.632926         0.309381
 C         3.266453        -0.806977        -0.325784
 O         4.404483        -1.537535        -0.716076
 C         1.937560        -1.472392         0.166788
 C         2.624308         0.344363        -0.943260
 O         2.687006         1.046491        -2.112495
 H        -0.672010        -0.583008         0.659176
 H        -0.632894         1.096333        -0.006690
 H        -0.517079        -0.371533        -1.094432
 H         1.879735         1.879894         1.341364
 H         1.995091         0.376340         2.182086
 H         4.448577         1.102371         0.380961
 H         4.134746        -2.392688        -1.318664
 H         1.522496        -2.134864        -0.685298
 H         1.929971        -1.928605         1.198332
 H         1.913949         0.875876        -2.749232
