19
Iteration:   395
 C        -0.051777         0.274286        -0.200307
 C         1.406733        -0.010108         0.069497
 C         2.116207         0.755808         1.232752
 C         3.417233         0.508211         0.365386
 C         3.226583        -0.884032        -0.396947
 O         4.350001        -1.577451        -0.795056
 C         1.932790        -1.464873         0.140582
 C         2.569698         0.355856        -0.888773
 O         2.525802         1.018743        -2.090766
 H        -0.579361         0.472487         0.783723
 H        -0.249514         1.139057        -0.824544
 H        -0.543158        -0.609131        -0.663296
 H         1.959059         1.819707         1.152580
 H         1.928732         0.393162         2.218907
 H         4.441171         0.929674         0.456906
 H         4.772249        -1.920371        -0.099088
 H         1.366949        -2.239493        -0.468691
 H         1.769597        -1.778021         1.212653
 H         2.447026         0.344680        -2.772833
