19
Iteration:   723charge 0 multiplicity 1
 C        -0.203394         0.180806        -0.015121
 C         1.283943        -0.015917         0.069149
 C         2.097169         0.803895         1.182571
 C         3.320392         0.616731         0.340429
 C         3.193378        -0.881661        -0.246937
 O         4.303239        -1.505939        -0.921812
 C         1.911859        -1.464006         0.166749
 C         2.623714         0.388884        -0.934733
 O         2.829489         0.907746        -2.145047
 H        -0.678880        -0.504335         0.730740
 H        -0.549760         1.177914         0.243838
 H        -0.651788        -0.057446        -1.023262
 H         1.714071         1.884061         1.205264
 H         2.249578         0.328710         2.142249
 H         4.292718         1.101343         0.526218
 H         5.039638        -1.786546        -0.451572
 H         1.498620        -2.039281        -0.609613
 H         1.883538        -2.175935         1.024979
 H         3.088879         0.134856        -2.777723
