19
Iteration:   202
 C        -0.019350         0.323003        -0.222715
 C         1.328215        -0.049868         0.134288
 C         2.161838         0.763053         1.202507
 C         3.407935         0.535662         0.384348
 C         3.202255        -0.878480        -0.379656
 O         4.350882        -1.562725        -0.805330
 C         1.924856        -1.509874         0.152903
 C         2.508716         0.311001        -0.867309
 O         2.485806         0.954367        -2.108522
 H        -0.530646         0.732005         0.543614
 H         0.093579         1.087893        -0.992894
 H        -0.655841        -0.530393        -0.678998
 H         2.020143         1.843971         1.122903
 H         2.129564         0.490943         2.198808
 H         4.388640         0.966619         0.314325
 H         4.867884        -1.571237        -0.097126
 H         1.539472        -2.161315        -0.682692
 H         1.901358        -2.091990         1.093964
 H         3.406871         1.057780        -2.359879
