19
Iteration:  2925charge 0 multiplicity 1
 C        -0.113455         0.271674        -0.281391
 C         1.369771        -0.032805         0.005074
 C         2.089787         0.682309         1.259759
 C         3.359822         0.377309         0.446235
 C         3.239530        -0.918058        -0.340825
 O         4.514842        -1.497223        -0.731496
 C         1.843327        -1.502154         0.152709
 C         2.557930         0.386993        -0.881010
 O         2.607376         1.076611        -2.115310
 H        -0.724905         0.281671         0.648394
 H        -0.214573         1.290806        -0.789943
 H        -0.677348        -0.314434        -1.123587
 H         1.868605         1.710292         1.240329
 H         1.940268         0.183632         2.207370
 H         4.373286         0.594292         0.622878
 H         4.296449        -2.160136        -1.535965
 H         1.334774        -2.173078        -0.583481
 H         1.794266        -1.909466         1.168884
 H         2.636819         2.072008        -1.934976
