19
Iteration:    53charge 0 multiplicity 1
 C        -0.024457         0.287435        -0.388173
 C         1.425968         0.004369         0.071011
 C         2.203840         0.754843         1.155904
 C         3.441932         0.621054         0.249901
 C         3.300212        -0.893221        -0.199237
 O         4.406472        -1.655040        -0.688711
 C         1.928140        -1.443044         0.164179
 C         2.540950         0.300990        -0.861333
 O         2.313784         0.942961        -2.103244
 H        -0.744796        -0.590398         0.001275
 H        -0.396308         1.193582         0.115869
 H        -0.163354         0.378913        -1.382395
 H         1.836099         1.728729         1.310597
 H         2.093455         0.355328         2.158481
 H         4.485558         0.834896         0.206427
 H         4.864429        -2.011655         0.066871
 H         1.574853        -2.003493        -0.660902
 H         1.677139        -2.025567         1.104704
 H         2.182006         1.966746        -1.866236
