19
Iteration:   301charge 0 multiplicity 1
 C        -0.218317         0.202509        -0.075223
 C         1.303806         0.073904         0.065303
 C         2.154892         0.798735         1.189818
 C         3.455814         0.496304         0.350243
 C         3.244997        -0.867875        -0.297107
 O         4.295324        -1.516691        -0.911515
 C         1.900914        -1.387031         0.181644
 C         2.594942         0.320372        -0.901556
 O         2.660708         0.854780        -2.139726
 H        -0.782803        -0.571478         0.316352
 H        -0.580645         1.129329         0.423558
 H        -0.485159         0.333802        -1.188395
 H         1.907096         1.845769         1.229244
 H         1.887553         0.322797         2.057196
 H         4.455204         0.987082         0.593988
 H         4.872841        -1.849197        -0.208602
 H         1.528366        -2.088240        -0.579789
 H         1.762328        -1.894506         1.137291
 H         3.624362         0.761858        -2.433917
