19
Iteration:  3891
 C        -0.130850         0.316609        -0.050698
 C         1.326489         0.010516        -0.026263
 C         1.966649         0.599471         1.183155
 C         3.372905         0.466756         0.529961
 C         3.285379        -0.814395        -0.216539
 O         4.350314        -1.471247        -0.727520
 C         1.851452        -1.460869        -0.067602
 C         2.654936         0.456587        -0.825636
 O         2.821431         0.779914        -2.219249
 H        -0.629332        -0.286663         0.551749
 H        -0.340923         1.390052         0.094857
 H        -0.713313        -0.068689        -0.869553
 H         1.710334         1.807489         1.328729
 H         1.740898         0.049433         2.219043
 H         4.363563         0.921324         0.651554
 H         4.348536        -1.266887        -1.779188
 H         1.381182        -1.898789        -0.950578
 H         1.698485        -2.095829         0.831894
 H         2.517439         1.634494        -2.547865
