19
Iteration:   691
 C        -0.165785         0.054377        -0.065129
 C         1.296651         0.034697         0.041551
 C         2.144116         0.784810         1.183502
 C         3.374313         0.522909         0.330894
 C         3.182457        -0.872503        -0.383923
 O         4.271712        -1.634863        -0.796710
 C         1.925909        -1.356784         0.187102
 C         2.549464         0.406515        -0.946490
 O         2.769699         1.053274        -2.141939
 H        -0.499461        -0.449152         0.836486
 H        -0.541186         1.082149        -0.060080
 H        -0.467506        -0.523416        -1.014668
 H         1.903560         1.941498         1.357023
 H         2.254254         0.442133         2.238345
 H         4.331631         1.035048         0.459222
 H         5.049711        -1.775604        -0.059873
 H         1.445943        -1.946849        -0.581095
 H         2.001615        -1.801443         1.206307
 H         2.903484         0.447361        -2.848488
