19
Iteration:   119
 C        -0.212108         0.221760        -0.090261
 C         1.301724         0.006777         0.103100
 C         2.099221         0.760239         1.227916
 C         3.384234         0.597205         0.317884
 C         3.264174        -0.913875        -0.200031
 O         4.317217        -1.493662        -0.918020
 C         1.865640        -1.399262         0.193300
 C         2.593568         0.278465        -0.888531
 O         2.828847         0.914063        -2.202642
 H        -0.863686        -0.389295         0.731030
 H        -0.491253         1.302859         0.006061
 H        -0.556083        -0.108156        -1.022719
 H         1.703010         1.788177         1.230111
 H         2.142418         0.388619         2.295957
 H         4.324350         1.166050         0.255845
 H         4.960054        -1.857134        -0.456385
 H         1.483608        -1.953929        -0.635282
 H         1.639790        -1.981576         1.130483
 H         2.505820         0.335171        -2.876695
