19
Iteration:  2690charge 0 multiplicity 1
 C        -0.181271         0.323280        -0.248228
 C         1.334079        -0.011496         0.003003
 C         2.081984         0.492533         1.283111
 C         3.363942         0.440234         0.472946
 C         3.271800        -0.805608        -0.378871
 O         4.453414        -1.545932        -0.612934
 C         1.839271        -1.426688         0.063466
 C         2.622844         0.411883        -0.929120
 O         2.611072         1.035042        -2.148845
 H        -0.639238         0.002823         0.764767
 H        -0.509261         1.402253        -0.565331
 H        -0.596346        -0.352728        -1.014809
 H         1.897361         1.498468         1.438141
 H         2.099634        -0.124590         2.162352
 H         4.384189         0.769215         0.618315
 H         4.474796        -1.654157        -1.674739
 H         1.519732        -2.178853        -0.642946
 H         1.805025        -1.895202         1.070551
 H         3.275737         1.648292        -2.463071
