19
Iteration:  1211
 C        -0.056243         0.055442        -0.207523
 C         1.401181         0.021802         0.097671
 C         2.156533         0.734222         1.217694
 C         3.356244         0.550642         0.345165
 C         3.259724        -0.855217        -0.388842
 O         4.443512        -1.610116        -0.580453
 C         1.950092        -1.444883         0.140814
 C         2.601817         0.416591        -0.956200
 O         2.337913         1.041537        -2.147641
 H        -0.587034        -0.277378         0.706756
 H        -0.409840         0.979177        -0.582368
 H        -0.168028        -0.588638        -1.023039
 H         1.950259         1.863702         1.092133
 H         1.861952         0.340886         2.213802
 H         4.183382         1.100227         0.548642
 H         4.806187        -1.634193        -1.605620
 H         1.466293        -2.077814        -0.662381
 H         1.948390        -1.794807         1.201146
 H         3.141075         1.471096        -2.521656
