19
Iteration:  4317charge 0 multiplicity 1
 C        -0.138789         0.159089        -0.298987
 C         1.349337         0.029285         0.090915
 C         2.069397         0.690379         1.269784
 C         3.397918         0.504511         0.501961
 C         3.259672        -0.831233        -0.287477
 O         4.236280        -1.560978        -0.928479
 C         1.851579        -1.399296         0.153966
 C         2.584705         0.482077        -0.825321
 O         2.824182         0.816732        -2.093496
 H        -0.830526        -0.662128         0.068414
 H        -0.502750         1.096071        -0.042079
 H        -0.257907         0.154361        -1.365037
 H         1.682131         1.715175         1.518520
 H         1.806783         0.125732         2.174636
 H         4.346901         1.084723         0.543653
 H         4.760925        -0.968011        -1.450098
 H         1.608242        -2.086550        -0.658713
 H         1.718804        -1.886391         1.152837
 H         2.952312         1.736274        -2.152685
