19
Iteration:  1251charge 0 multiplicity 1
 C        -0.130194         0.042440        -0.168126
 C         1.327716        -0.073604         0.069623
 C         2.122233         0.764327         1.129240
 C         3.365994         0.562051         0.279468
 C         3.288906        -0.859925        -0.362463
 O         4.420062        -1.546106        -0.637408
 C         2.019141        -1.497213         0.189482
 C         2.525120         0.345497        -0.956485
 O         2.498788         1.130229        -2.119244
 H        -0.714611        -0.541413         0.515041
 H        -0.513138         1.138581        -0.018489
 H        -0.421176        -0.318211        -1.265825
 H         1.865875         1.873182         1.064375
 H         2.358973         0.520399         2.145664
 H         4.233155         1.238271         0.214197
 H         4.111424        -2.363391        -0.567450
 H         1.657809        -2.242223        -0.526873
 H         2.145397        -1.934961         1.163006
 H         3.080083         1.912089        -2.092153
