19
Iteration:  2426charge 0 multiplicity 1
 C        -0.088551         0.217249        -0.392501
 C         1.338038        -0.074206         0.044523
 C         2.143948         0.613400         1.293512
 C         3.368249         0.608306         0.395642
 C         3.248589        -0.813482        -0.224603
 O         4.352850        -1.629862        -0.727830
 C         1.917771        -1.496085         0.031336
 C         2.522079         0.431646        -0.805370
 O         2.604293         1.080132        -2.054871
 H        -0.752782        -0.485252         0.044196
 H        -0.423221         1.137281        -0.024753
 H        -0.222864         0.189438        -1.448119
 H         1.776538         1.622590         1.422966
 H         2.136077        -0.136153         2.161794
 H         4.281001         1.126185         0.575423
 H         4.442759        -1.727187        -1.807916
 H         1.557406        -2.016920        -0.893158
 H         1.721577        -2.203678         0.886711
 H         3.499204         1.478731        -1.800182
