19
Iteration:  1190charge 0 multiplicity 1
 C        -0.085679         0.197822        -0.274855
 C         1.348094        -0.052381         0.091243
 C         2.047053         0.765251         1.206796
 C         3.384299         0.585538         0.371495
 C         3.241656        -0.840256        -0.341869
 O         4.416807        -1.514617        -0.700034
 C         2.044246        -1.554031         0.199133
 C         2.598043         0.350174        -0.915076
 O         2.379692         0.946492        -2.129667
 H        -0.602449         0.109357         0.736380
 H        -0.106741         1.215874        -0.523134
 H        -0.572916        -0.286922        -1.032594
 H         1.621840         1.755855         1.369180
 H         2.277166         0.259883         2.164718
 H         4.390802         0.785676         0.519981
 H         5.044557        -1.176880        -1.489423
 H         1.565667        -2.271714        -0.546396
 H         2.246822        -1.970327         1.238314
 H         3.180556         1.269811        -2.506435
