19
Iteration:  2524
 C        -0.119867         0.289217        -0.210579
 C         1.301860        -0.026336         0.014278
 C         2.011843         0.509945         1.271765
 C         3.300370         0.475943         0.462503
 C         3.242965        -0.866949        -0.369524
 O         4.402297        -1.494949        -0.653322
 C         1.994087        -1.486879         0.049975
 C         2.615961         0.378139        -0.931650
 O         2.704242         1.049924        -2.165411
 H        -0.672573         0.492659         0.832362
 H        -0.076001         1.324761        -0.618051
 H        -0.701350        -0.335586        -0.931514
 H         1.806924         1.553599         1.347316
 H         1.864597        -0.067596         2.218629
 H         4.169572         0.971074         0.719236
 H         4.470840        -2.043189        -1.488954
 H         1.377088        -2.016550        -0.720712
 H         1.954499        -2.072704         1.016843
 H         2.676923         2.063567        -2.021669
