19
Iteration:   370
 C        -0.242610         0.243244        -0.114470
 C         1.316542         0.044413         0.104219
 C         2.124623         0.758599         1.271078
 C         3.428620         0.591386         0.376524
 C         3.280413        -0.852527        -0.221492
 O         4.331705        -1.524996        -0.930923
 C         1.887248        -1.448599         0.121163
 C         2.582311         0.340264        -0.898486
 O         2.748631         0.883175        -2.185938
 H        -0.931784         0.094306         0.785370
 H        -0.463164         1.236325        -0.496431
 H        -0.530767        -0.422810        -0.848900
 H         1.964671         1.827886         1.592218
 H         2.097797         0.133187         2.059923
 H         4.389720         1.033033         0.404387
 H         5.012919        -2.007429        -0.320997
 H         1.468199        -2.052583        -0.622503
 H         1.592590        -1.955754         1.109277
 H         2.329616         0.297142        -2.768245
