19
Iteration:  2857
 C        -0.183706         0.262841        -0.172973
 C         1.290432        -0.021208         0.037787
 C         2.109214         0.601083         1.266035
 C         3.402546         0.458330         0.446540
 C         3.174330        -0.860638        -0.387852
 O         4.395739        -1.427960        -0.689366
 C         1.856157        -1.464839         0.051425
 C         2.585959         0.399791        -0.915157
 O         2.803338         0.928430        -2.132333
 H        -0.695800        -0.292892         0.598182
 H        -0.408800         1.427267        -0.064728
 H        -0.500661         0.027987        -1.292296
 H         1.759010         1.612015         1.362721
 H         1.940830         0.075686         2.246436
 H         4.535787         0.622777         0.458675
 H         4.489832        -1.727140        -1.526915
 H         1.440956        -2.073002        -0.773178
 H         1.689304        -1.961224         1.042134
 H         2.489169         1.804972        -2.115653
