19
Iteration:  3838
 C        -0.034280         0.262869        -0.323551
 C         1.293973        -0.055491         0.149013
 C         2.117967         0.687770         1.265697
 C         3.343328         0.427880         0.446035
 C         3.196318        -0.872830        -0.301183
 O         4.306699        -1.428013        -0.786063
 C         1.848708        -1.510691         0.151750
 C         2.536793         0.374468        -0.886654
 O         2.786327         0.962230        -2.119551
 H        -0.977888         0.071000         0.447791
 H        -0.111322         1.279889        -0.713136
 H        -0.364557        -0.437750        -1.095860
 H         1.994794         1.812020         1.150437
 H         2.099805         0.127279         2.227586
 H         4.377241         0.757036         0.561178
 H         4.156243        -1.667588        -1.747402
 H         1.571545        -2.058954        -0.756452
 H         1.768166        -2.060200         1.112224
 H         3.100210         1.889491        -2.007861
