19
Iteration:  2923
 C        -0.117646         0.268140        -0.272243
 C         1.371297        -0.022946        -0.011183
 C         2.100490         0.691725         1.259782
 C         3.352031         0.371500         0.466219
 C         3.233969        -0.910944        -0.341269
 O         4.501892        -1.501175        -0.732955
 C         1.868467        -1.495826         0.136938
 C         2.557280         0.386226        -0.875151
 O         2.600847         1.069016        -2.118568
 H        -0.705571         0.270745         0.588625
 H        -0.193682         1.270947        -0.785265
 H        -0.641482        -0.293620        -1.046233
 H         1.863434         1.732032         1.242624
 H         1.885797         0.070714         2.179620
 H         4.366971         0.620927         0.683786
 H         4.277264        -2.187877        -1.482991
 H         1.388039        -2.150116        -0.582811
 H         1.806950        -1.912056         1.152568
 H         2.660626         2.067826        -1.985433
