19
Iteration:  3938charge 0 multiplicity 1
 C        -0.120767         0.267478        -0.243865
 C         1.306677         0.007103         0.071421
 C         2.078003         0.606416         1.250394
 C         3.367741         0.465010         0.386428
 C         3.204559        -0.883955        -0.305029
 O         4.433722        -1.499104        -0.723156
 C         1.780124        -1.468426         0.176483
 C         2.560636         0.341371        -0.906070
 O         2.762357         0.997974        -2.161869
 H        -0.879945        -0.344650         0.114824
 H        -0.283403         1.277735        -0.119407
 H        -0.339574         0.024046        -1.270217
 H         1.906444         1.771110         1.381616
 H         2.289110         0.073565         2.247602
 H         4.235766         1.106794         0.523962
 H         4.321491        -1.791960        -1.641389
 H         1.499430        -2.117833        -0.676719
 H         1.699655        -1.952994         1.154167
 H         3.028900         1.976992        -2.012619
