19
Iteration:   334
 C        -0.152208         0.227029         0.028714
 C         1.293652        -0.018467         0.144467
 C         2.058308         0.798553         1.162493
 C         3.352143         0.558615         0.360927
 C         3.213411        -0.859525        -0.335366
 O         4.249497        -1.444251        -0.988010
 C         1.883032        -1.463428         0.182940
 C         2.575595         0.365562        -0.909882
 O         2.885987         0.817023        -2.166855
 H        -0.778176        -0.397050         0.578177
 H        -0.358615         1.294563         0.323978
 H        -0.402729         0.180004        -1.084791
 H         1.711282         1.832823         1.256841
 H         1.825251         0.360355         2.149647
 H         4.396817         0.958515         0.623114
 H         5.052676        -1.637171        -0.258252
 H         1.375686        -2.097349        -0.538690
 H         1.823126        -1.849923         1.175834
 H         3.234827         0.122485        -2.677969
