19
Iteration:    74
 C        -0.026403         0.298810        -0.297556
 C         1.371725        -0.041932         0.160104
 C         2.168850         0.817632         1.215518
 C         3.359727         0.531946         0.344569
 C         3.229658        -0.876812        -0.367473
 O         4.379955        -1.625932        -0.718085
 C         1.932844        -1.501360         0.188214
 C         2.622056         0.302853        -0.930124
 O         2.477178         0.953563        -2.181502
 H        -0.871746        -0.538786        -0.132680
 H        -0.405395         1.244067         0.144418
 H        -0.035104         0.417317        -1.366218
 H         2.032934         1.920689         1.154273
 H         2.108725         0.629310         2.331829
 H         4.237324         1.128866         0.439268
 H         4.940073        -1.650093         0.013489
 H         1.385086        -2.151312        -0.442422
 H         2.067574        -2.001961         1.203912
 H         1.661186         1.405600        -2.024574
