19
Iteration:   348charge 0 multiplicity 1
 C        -0.092495         0.225655        -0.054979
 C         1.337361        -0.039806         0.102413
 C         2.126050         0.733452         1.199433
 C         3.324065         0.585950         0.379451
 C         3.125735        -0.790905        -0.291683
 O         4.208641        -1.431317        -0.936249
 C         1.901666        -1.444164         0.152696
 C         2.539576         0.370116        -0.898325
 O         2.904629         0.811605        -2.152834
 H        -0.688006        -0.296533         0.806542
 H        -0.310173         1.292852         0.073065
 H        -0.487909        -0.087142        -0.949267
 H         1.783693         1.829354         1.176089
 H         2.271122         0.360715         2.108078
 H         4.307655         0.993706         0.482109
 H         4.826000        -1.666303        -0.327389
 H         1.474847        -2.020511        -0.612929
 H         1.953208        -2.162078         1.076890
 H         2.649183         0.023042        -2.789844
