19
Iteration:  2794
 C        -0.114028         0.208178        -0.358522
 C         1.352547         0.034588         0.140750
 C         2.115728         0.619922         1.319078
 C         3.373032         0.630576         0.414766
 C         3.230714        -0.855926        -0.256217
 O         4.253526        -1.564039        -0.811850
 C         1.923308        -1.519309         0.074400
 C         2.556755         0.410448        -0.790787
 O         2.741631         0.962858        -2.110255
 H        -0.770117        -0.545188         0.097690
 H        -0.625710         1.174398        -0.240948
 H        -0.086801        -0.208021        -1.429338
 H         1.782419         1.655064         1.557615
 H         2.191009         0.155761         2.285527
 H         4.402608         1.083092         0.445693
 H         4.180896        -1.650792        -1.718040
 H         1.661945        -1.989038        -0.927692
 H         1.780879        -2.231583         0.896856
 H         3.038961         1.861733        -2.031868
