19
Iteration:  4502
 C        -0.091014         0.219876        -0.372414
 C         1.288000        -0.075148         0.090068
 C         2.042871         0.724701         1.313521
 C         3.370776         0.515572         0.435930
 C         3.272090        -0.838289        -0.266862
 O         4.317553        -1.483766        -0.878801
 C         1.905442        -1.518587         0.179770
 C         2.514598         0.411239        -0.858183
 O         2.813088         1.066321        -2.031886
 H        -0.801968        -0.476657         0.039933
 H        -0.272539         1.253748        -0.278754
 H        -0.158868        -0.026941        -1.452955
 H         1.955138         1.764789         1.449961
 H         2.082957         0.121766         2.273900
 H         4.232364         1.186953         0.384250
 H         4.002093        -2.445706        -1.190410
 H         1.483163        -2.077112        -0.602730
 H         1.779647        -2.139234         1.095028
 H         2.715673         0.289176        -2.706143
