19
Iteration:  4015
 C        -0.100065         0.281601        -0.355341
 C         1.374090        -0.027714         0.033319
 C         2.178948         0.624825         1.172946
 C         3.420883         0.475980         0.440241
 C         3.203195        -0.882205        -0.378619
 O         4.379598        -1.566383        -0.610868
 C         1.881438        -1.509098         0.096486
 C         2.561039         0.376700        -0.872296
 O         2.605315         1.060652        -2.061266
 H        -0.730523         0.259010         0.498160
 H        -0.378737         1.187339        -0.764723
 H        -0.503290        -0.375349        -1.134334
 H         1.895483         1.731166         1.482093
 H         1.978323         0.232456         2.241163
 H         4.334509         1.010562         0.530230
 H         4.294326        -1.871339        -1.618861
 H         1.422248        -2.189641        -0.650046
 H         1.918066        -1.919810         1.105102
 H         2.517461         1.970767        -1.874526
