19
Iteration:  4005charge 0 multiplicity 1
 C        -0.104811         0.264741        -0.387995
 C         1.368146        -0.009529         0.011256
 C         2.165270         0.729895         1.236847
 C         3.417485         0.495439         0.397497
 C         3.235712        -0.903222        -0.297264
 O         4.341404        -1.597203        -0.661394
 C         1.916046        -1.517149         0.088418
 C         2.613511         0.338198        -0.854402
 O         2.577698         1.087664        -2.020000
 H        -0.778024        -0.001730         0.396149
 H        -0.183513         1.181795        -0.812327
 H        -0.334617        -0.553755        -1.055840
 H         1.907693         1.862391         1.198663
 H         2.066438         0.063657         2.159838
 H         4.363242         0.998614         0.449119
 H         4.213803        -2.019478        -1.559983
 H         1.361413        -1.983677        -0.750586
 H         1.715465        -2.089424         0.991853
 H         2.366316         1.942692        -1.742264
