19
Iteration:  4819charge 0 multiplicity 1
 C        -0.088697         0.279255        -0.432019
 C         1.316551        -0.041765         0.119567
 C         2.050263         0.665491         1.294557
 C         3.344353         0.497241         0.563408
 C         3.217670        -0.885266        -0.340503
 O         4.293551        -1.556517        -0.891425
 C         1.927920        -1.464689         0.158363
 C         2.611427         0.442059        -0.766156
 O         2.797322         0.939320        -2.067661
 H        -0.840685         0.142854         0.337349
 H        -0.129700         1.407159        -0.809144
 H        -0.152738        -0.447659        -1.367502
 H         1.766542         1.679701         1.369499
 H         1.937444         0.179239         2.238793
 H         4.376125         0.697490         0.876959
 H         4.315124        -1.350448        -1.825797
 H         1.506909        -1.867816        -0.743893
 H         1.724609        -2.070867         1.054948
 H         2.231015         1.620774        -2.249168
