19
Iteration:  4078charge 0 multiplicity 1
 C        -0.182234         0.274579        -0.121600
 C         1.282022         0.069305         0.058388
 C         2.029615         0.659720         1.219826
 C         3.382414         0.489039         0.490931
 C         3.242820        -0.841198        -0.202280
 O         4.373916        -1.410074        -0.787503
 C         1.854712        -1.479446        -0.058364
 C         2.556250         0.403902        -0.837545
 O         2.864965         0.759062        -2.156402
 H        -0.770353        -0.328074         0.570338
 H        -0.183232         1.429675         0.073967
 H        -0.548477        -0.071490        -1.119055
 H         1.758299         1.691171         1.260845
 H         2.030677         0.082032         2.092728
 H         4.309688         0.953154         0.733016
 H         4.246337        -1.695514        -1.767608
 H         1.531424        -1.903721        -1.014362
 H         1.786494        -2.317536         0.670445
 H         2.773140         1.691609        -2.288962
