19
Iteration:  4693charge 0 multiplicity 1
 C        -0.123449         0.286256        -0.267000
 C         1.336786         0.004381         0.017057
 C         1.984148         0.625345         1.266035
 C         3.328255         0.469745         0.468072
 C         3.225793        -0.929271        -0.440351
 O         4.438561        -1.563066        -0.724689
 C         1.879586        -1.437483         0.092769
 C         2.651633         0.343018        -0.885303
 O         2.710626         1.173940        -2.023082
 H        -0.947308        -0.005714         0.526487
 H        -0.165764         1.364943        -0.508314
 H        -0.305614        -0.322554        -1.155914
 H         1.522666         1.703326         1.386698
 H         1.965199         0.270701         2.333133
 H         4.347624         0.785433         0.705347
 H         4.297011        -2.305668        -1.311825
 H         1.517202        -2.219750        -0.634865
 H         1.867500        -1.937691         1.036669
 H         2.863206         0.590222        -2.727425
