19
Iteration:  1561
 C        -0.157057         0.147530        -0.163599
 C         1.331234        -0.010507         0.037646
 C         2.078649         0.627391         1.293138
 C         3.402188         0.593398         0.507975
 C         3.260726        -0.796780        -0.278486
 O         4.429244        -1.504211        -0.753767
 C         1.852286        -1.435994        -0.051821
 C         2.584668         0.463313        -0.834695
 O         2.682608         0.840949        -2.202815
 H        -0.651396        -0.245730         0.625468
 H        -0.516440         1.169282        -0.330319
 H        -0.409048        -0.371692        -1.074867
 H         1.761038         1.687771         1.589535
 H         2.124809         0.044654         2.178053
 H         4.282888         1.109194         0.798274
 H         4.271371        -1.593935        -1.658934
 H         1.471510        -2.040473        -0.883022
 H         1.822276        -2.031877         0.876435
 H         2.563902         1.850178        -2.240946
