19
Iteration:  4893charge 0 multiplicity 1
 C        -0.164036         0.350476        -0.117156
 C         1.285298        -0.039569        -0.030058
 C         2.005165         0.564338         1.212914
 C         3.313803         0.485253         0.360396
 C         3.196966        -0.860512        -0.319434
 O         4.420182        -1.451559        -0.671411
 C         1.850801        -1.562252         0.036078
 C         2.543229         0.361078        -0.912261
 O         2.905726         0.992836        -2.108568
 H        -0.590516         0.079021         0.807703
 H        -0.086695         1.402027        -0.141313
 H        -0.643991         0.060773        -0.977521
 H         1.714802         1.658524         1.170069
 H         1.927981        -0.022237         2.148449
 H         4.286746         0.889003         0.637160
 H         4.329155        -1.946775        -1.465813
 H         1.428092        -2.143775        -0.801737
 H         1.823232        -2.118556         0.962362
 H         2.964959         1.922829        -1.930273
