19
Iteration:   681charge 0 multiplicity 1
 C        -0.156026         0.090263        -0.088818
 C         1.366800         0.069566         0.121670
 C         2.116611         0.822044         1.193075
 C         3.351742         0.558012         0.318366
 C         3.198696        -0.905954        -0.424182
 O         4.279922        -1.656945        -0.786603
 C         1.961113        -1.469178         0.152693
 C         2.590866         0.402023        -0.913286
 O         2.729861         1.103167        -2.155705
 H        -0.643378        -0.350349         0.739137
 H        -0.597575         1.092530        -0.273272
 H        -0.514229        -0.583813        -0.978333
 H         1.998633         2.008798         1.108235
 H         1.986202         0.361612         2.209128
 H         4.390458         0.851462         0.545987
 H         4.780487        -1.632139         0.104140
 H         1.351502        -2.252078        -0.376159
 H         2.053425        -1.790202         1.197999
 H         2.616745         0.390764        -2.828698
