19
Iteration:   598
 C         0.017350         0.330798        -0.303996
 C         1.426680        -0.001439         0.156030
 C         2.120205         0.706453         1.277948
 C         3.415400         0.474161         0.424000
 C         3.209593        -0.863409        -0.334935
 O         4.295772        -1.521890        -0.813820
 C         1.960588        -1.476284         0.172467
 C         2.534723         0.339525        -0.902645
 O         2.462892         0.960609        -2.185828
 H        -0.696973         0.284825         0.602164
 H        -0.144615         1.349762        -0.745675
 H        -0.356053        -0.398406        -0.986908
 H         1.840585         1.711077         1.437246
 H         2.131808         0.219594         2.276934
 H         4.444993         0.963412         0.488083
 H         4.962551        -1.387331        -0.102773
 H         1.498160        -2.102434        -0.663346
 H         2.005522        -1.858144         1.250489
 H         2.686931         0.112212        -2.739257
