19
Iteration:  4769charge 0 multiplicity 1
 C        -0.147863         0.337537        -0.288529
 C         1.316872        -0.017372         0.006512
 C         2.126359         0.583685         1.183203
 C         3.395131         0.393213         0.460546
 C         3.259787        -0.897235        -0.314056
 O         4.452689        -1.510714        -0.637332
 C         1.804717        -1.484422         0.030067
 C         2.608691         0.403100        -0.892591
 O         2.629623         1.037759        -2.102007
 H        -0.841331        -0.356753         0.229850
 H        -0.372090         1.248643         0.161878
 H        -0.238262         0.350133        -1.319233
 H         1.919156         1.729611         1.320521
 H         1.831265         0.137115         2.238997
 H         4.412396         0.733173         0.732810
 H         4.082053        -2.028179        -1.398525
 H         1.396058        -2.150943        -0.764995
 H         1.738631        -1.823570         1.075177
 H         3.130857         1.932862        -1.972374
