19
Iteration:   309
 C        -0.302825         0.228161        -0.077763
 C         1.295330         0.066257         0.032362
 C         2.175024         0.835471         1.161128
 C         3.409781         0.485919         0.446188
 C         3.282150        -0.856022        -0.264280
 O         4.312739        -1.513683        -0.958733
 C         1.919018        -1.428311         0.202395
 C         2.546821         0.302924        -0.905395
 O         2.723862         0.856258        -2.176897
 H        -0.771421        -0.604254         0.453559
 H        -0.562412         1.117217         0.503985
 H        -0.749797         0.344764        -1.151773
 H         2.067236         1.878224         1.367530
 H         2.112454         0.246141         2.228851
 H         4.323868         1.034226         0.522716
 H         5.054107        -1.861106        -0.290162
 H         1.344233        -2.018577        -0.603528
 H         1.781795        -1.853077         1.152512
 H         3.641796         0.652463        -2.468558
