19
Iteration:  4001charge 0 multiplicity 1
 C        -0.087785         0.211051        -0.391661
 C         1.340618         0.011406         0.036605
 C         2.116030         0.757226         1.266674
 C         3.409898         0.496976         0.372109
 C         3.265020        -0.926965        -0.263110
 O         4.343468        -1.615928        -0.692192
 C         1.898176        -1.493019         0.088107
 C         2.634025         0.351223        -0.880024
 O         2.573471         1.086907        -2.007650
 H        -0.726246         0.148772         0.509055
 H        -0.155188         1.290039        -0.827684
 H        -0.186243        -0.527216        -1.242390
 H         1.886517         1.852986         1.169861
 H         2.176093         0.165525         2.199177
 H         4.446742         0.861652         0.419619
 H         4.189529        -2.086757        -1.508413
 H         1.496340        -1.974183        -0.819559
 H         1.728087        -2.165966         0.959353
 H         2.298503         2.031975        -1.700796
