19
Iteration:   322
 C        -0.262497         0.274192        -0.014577
 C         1.297330         0.032599         0.077944
 C         2.074581         0.784300         1.254738
 C         3.353391         0.532218         0.407072
 C         3.207282        -0.883859        -0.269648
 O         4.326310        -1.485233        -1.009934
 C         1.877630        -1.454020         0.218461
 C         2.620768         0.330595        -0.913937
 O         2.829836         0.854480        -2.220676
 H        -0.657208        -0.540151         0.486170
 H        -0.622915         1.207223         0.475128
 H        -0.757966         0.185498        -1.080745
 H         1.857757         1.806275         1.045638
 H         2.089869         0.554999         2.383416
 H         4.360404         1.064962         0.357514
 H         4.980087        -1.666571        -0.455576
 H         1.536220        -2.202345        -0.547730
 H         1.873864        -1.914041         1.147937
 H         3.552754         0.235739        -2.560108
