19
Iteration:  1337
 C        -0.125384         0.182496        -0.219639
 C         1.339102         0.013966         0.113818
 C         2.020710         0.639859         1.359994
 C         3.436943         0.687410         0.490178
 C         3.230367        -0.761458        -0.326986
 O         4.326038        -1.416821        -0.892363
 C         1.966266        -1.467594         0.052865
 C         2.581217         0.427756        -0.788821
 O         2.634509         0.611520        -2.213678
 H        -0.749656        -0.030719         0.562886
 H        -0.176412         1.290120        -0.442508
 H        -0.393405        -0.577362        -1.038876
 H         1.735673         1.619885         1.634529
 H         2.032906        -0.016371         2.279868
 H         4.440577         1.106484         0.690800
 H         5.012521        -0.547376        -1.210725
 H         1.553147        -2.034315        -0.801086
 H         1.895470        -2.200312         0.927914
 H         2.621601         1.624226        -2.391361
