19
Iteration:   643
 C        -0.077820         0.317453        -0.277557
 C         1.359431        -0.001668         0.024515
 C         2.179542         0.757515         1.145558
 C         3.380460         0.521067         0.281333
 C         3.298136        -0.865598        -0.215528
 O         4.391459        -1.582387        -0.795379
 C         1.939785        -1.529931         0.210416
 C         2.520863         0.243447        -0.942752
 O         2.510796         1.052671        -1.964575
 H        -0.751055         0.311274         0.700854
 H        -0.135558         1.313917        -0.720391
 H        -0.425959        -0.382215        -0.964981
 H         1.885253         1.777039         1.180007
 H         1.961631         0.399012         2.155325
 H         4.328976         1.085660         0.075210
 H         4.935997        -2.075356        -0.236679
 H         1.629424        -2.107872        -0.645543
 H         1.853123        -1.893941         1.286241
 H         1.814432         0.770589        -2.685294
