19
Iteration:   614charge 0 multiplicity 1
 C         0.010982         0.362073        -0.298292
 C         1.363697        -0.048741         0.136290
 C         2.171007         0.716268         1.258382
 C         3.325356         0.547075         0.364262
 C         3.207162        -0.885307        -0.390083
 O         4.419997        -1.575394        -0.803433
 C         1.937818        -1.545335         0.218888
 C         2.569194         0.392226        -0.893166
 O         2.437486         0.987201        -2.098618
 H        -0.755611         0.469988         0.477016
 H         0.287918         1.268862        -0.822555
 H        -0.397142        -0.341035        -1.103538
 H         1.826255         1.873847         1.169883
 H         1.997314         0.371480         2.300880
 H         4.321990         0.784122         0.546569
 H         5.010573        -1.689508        -0.179655
 H         1.357798        -2.169676        -0.421272
 H         2.080831        -1.940553         1.261791
 H         2.257934         0.355155        -2.858063
