19
Iteration:  1790charge 0 multiplicity 1
 C        -0.113929         0.057976        -0.228226
 C         1.350786         0.000060         0.026876
 C         2.049251         0.658557         1.242590
 C         3.368116         0.519137         0.461005
 C         3.224678        -0.822910        -0.384122
 O         4.269539        -1.680681        -0.740297
 C         1.923004        -1.403648         0.111910
 C         2.635555         0.428333        -0.925934
 O         2.765157         1.117662        -2.086677
 H        -0.627136        -0.512337         0.470578
 H        -0.499145         1.170659        -0.255331
 H        -0.371265        -0.251592        -1.272073
 H         1.678373         1.680089         1.507401
 H         1.946960         0.194160         2.201559
 H         4.377496         0.886633         0.548926
 H         4.961560        -1.321496        -1.263921
 H         1.378152        -1.979705        -0.621717
 H         1.861549        -2.040212         0.943779
 H         2.229026         1.957489        -1.981404
