19
Iteration:  1589
 C        -0.137448         0.165939        -0.135104
 C         1.309200        -0.074261         0.066442
 C         2.039564         0.711255         1.215837
 C         3.366937         0.440807         0.367334
 C         3.193634        -0.866925        -0.343721
 O         4.418789        -1.382184        -0.752740
 C         1.896247        -1.479171         0.048859
 C         2.544049         0.290767        -0.928827
 O         2.760204         1.036405        -2.127288
 H        -0.871454        -0.501476         0.576425
 H        -0.437556         1.240321         0.069664
 H        -0.377790        -0.015738        -1.247730
 H         1.870118         1.758061         1.192744
 H         1.921604         0.328102         2.301707
 H         4.464403         0.860549         0.477782
 H         4.374772        -2.258042        -0.703229
 H         1.432620        -2.237847        -0.616777
 H         2.218534        -1.851641         1.033622
 H         2.734267         1.981286        -1.806064
