19
Iteration:  3859charge 0 multiplicity 1
 C        -0.189267         0.284513        -0.238357
 C         1.308267        -0.009978         0.070242
 C         2.059631         0.632208         1.322398
 C         3.354134         0.551062         0.469164
 C         3.209160        -0.849163        -0.345312
 O         4.329822        -1.450190        -0.793013
 C         1.862374        -1.483786         0.013224
 C         2.616110         0.447420        -0.826033
 O         2.870194         0.784508        -2.107840
 H        -0.869725         0.058197         0.655540
 H        -0.405219         1.313655        -0.549658
 H        -0.483697        -0.333179        -1.083519
 H         1.927656         1.791159         1.511999
 H         2.207271        -0.064366         2.213351
 H         4.371937         0.936335         0.538453
 H         4.251254        -1.598752        -1.687290
 H         1.307972        -2.020124        -0.762474
 H         1.927307        -2.036632         0.972586
 H         2.663015         1.761043        -2.279711
