19
Iteration:  4458
 C        -0.104535         0.223201        -0.291807
 C         1.333583         0.051550         0.036812
 C         2.098330         0.694998         1.257785
 C         3.390950         0.444678         0.496224
 C         3.240323        -0.922180        -0.310651
 O         4.490139        -1.566554        -0.691683
 C         1.824685        -1.468284         0.015278
 C         2.578795         0.351407        -0.905230
 O         2.587339         1.108721        -2.045285
 H        -0.734426         0.228014         0.643804
 H        -0.202029         1.231792        -0.726226
 H        -0.642026        -0.482059        -0.970489
 H         1.717721         1.658775         1.306009
 H         1.813270         0.327580         2.184909
 H         4.372732         0.887349         0.505983
 H         4.359791        -1.630349        -1.746087
 H         1.488201        -2.214079        -0.628572
 H         1.733791        -1.890796         1.026715
 H         3.247067         0.738217        -2.679209
