19
Iteration:  1406charge 0 multiplicity 1
 C        -0.166239         0.108587        -0.200813
 C         1.372896        -0.039729         0.082080
 C         2.122080         0.757194         1.201383
 C         3.359199         0.473685         0.353713
 C         3.253490        -0.846578        -0.355629
 O         4.430567        -1.528326        -0.745486
 C         1.975972        -1.488062         0.140478
 C         2.535796         0.369362        -0.932661
 O         2.568085         1.078416        -2.145550
 H        -0.675433        -0.498272         0.612575
 H        -0.543737         1.200629        -0.082717
 H        -0.557450        -0.488487        -1.118075
 H         1.719396         1.843691         1.126669
 H         2.048194         0.356764         2.178046
 H         4.349693         0.967653         0.174400
 H         4.707182        -1.991006        -0.035902
 H         1.583330        -2.227558        -0.592478
 H         2.021730        -1.943404         1.126036
 H         2.667295         1.996158        -1.908635
