19
Iteration:  1018
 C        -0.064461         0.158854        -0.186933
 C         1.417943         0.026686         0.071553
 C         2.118432         0.748934         1.234987
 C         3.409282         0.610624         0.396537
 C         3.268907        -0.810915        -0.373837
 O         4.429435        -1.550304        -0.752210
 C         1.918299        -1.514521         0.133529
 C         2.579831         0.336041        -0.893691
 O         2.427375         0.939917        -2.168185
 H        -0.764507        -0.060161         0.627932
 H        -0.230756         1.194937        -0.459614
 H        -0.327163        -0.390791        -1.073316
 H         1.712219         1.786627         1.287276
 H         2.036687         0.379116         2.312319
 H         4.366424         1.017678         0.371335
 H         4.208723        -2.541156        -0.396129
 H         1.542873        -2.009442        -0.719659
 H         1.754588        -2.059271         1.061337
 H         2.948530         1.809616        -2.180806
