19
Iteration:  1245
 C        -0.162292         0.027391        -0.201628
 C         1.338731        -0.047870         0.042950
 C         2.200643         0.771688         1.159832
 C         3.370676         0.599803         0.243248
 C         3.288689        -0.817922        -0.311966
 O         4.402369        -1.560097        -0.615949
 C         2.018718        -1.505690         0.143641
 C         2.531435         0.350402        -0.984115
 O         2.470063         1.124351        -2.086279
 H        -0.755337        -0.583993         0.550726
 H        -0.507081         0.998606        -0.076860
 H        -0.452160        -0.379783        -1.095169
 H         1.936284         1.845057         1.051425
 H         2.229863         0.527758         2.276394
 H         4.271530         1.195153         0.328847
 H         4.201465        -2.604515        -0.753167
 H         1.702645        -2.349795        -0.522899
 H         2.004959        -1.983441         1.177317
 H         3.101896         1.809825        -2.111136
