19
Iteration:  4328
 C        -0.142606         0.178080        -0.341797
 C         1.320508         0.018397        -0.029257
 C         2.034812         0.726726         1.306376
 C         3.374512         0.521079         0.523829
 C         3.243080        -0.837720        -0.276819
 O         4.242792        -1.593581        -0.924569
 C         1.962981        -1.402026         0.132524
 C         2.645952         0.371804        -0.773527
 O         2.782329         0.868631        -2.082726
 H        -0.727497        -0.569230         0.297804
 H        -0.414913         1.088498         0.087464
 H        -0.354040         0.140442        -1.401013
 H         1.904156         1.864551         1.477511
 H         1.898647         0.136360         2.219926
 H         4.332957         1.032301         0.743204
 H         4.629858        -1.064655        -1.543800
 H         1.284105        -1.935102        -0.487788
 H         1.885186        -1.817183         1.167289
 H         2.627883         1.823728        -2.247367
