19
Iteration:  2347
 C        -0.184830         0.285158        -0.254740
 C         1.318905        -0.087463         0.052383
 C         2.078331         0.615694         1.331625
 C         3.287291         0.599248         0.454823
 C         3.292843        -0.833791        -0.291318
 O         4.372711        -1.598058        -0.760893
 C         1.926062        -1.509989        -0.060929
 C         2.586074         0.429124        -0.889265
 O         2.824036         1.022548        -2.042104
 H        -0.807592         0.261466         0.629542
 H        -0.317475         1.164402        -0.737244
 H        -0.586629        -0.374486        -1.021313
 H         1.610357         1.444929         1.866399
 H         2.250212        -0.026497         2.304121
 H         4.196818         1.237713         0.786144
 H         4.213207        -1.876099        -1.698187
 H         1.607694        -1.805807        -1.135633
 H         1.843892        -2.240039         0.763816
 H         1.935063         1.475745        -2.319000
