19
Iteration:  4772
 C        -0.142004         0.328866        -0.300238
 C         1.309526        -0.011638         0.014091
 C         2.116868         0.585579         1.173263
 C         3.392128         0.401073         0.443386
 C         3.256366        -0.894733        -0.307163
 O         4.447649        -1.505228        -0.651597
 C         1.803213        -1.489763         0.049836
 C         2.621119         0.394412        -0.882254
 O         2.638777         1.031818        -2.089297
 H        -0.838587        -0.342285         0.263884
 H        -0.364327         1.366092         0.147028
 H        -0.259843         0.419276        -1.413900
 H         1.888962         1.715957         1.281727
 H         1.950257         0.103063         2.181880
 H         4.370245         0.705418         0.808298
 H         4.005816        -1.992779        -1.440469
 H         1.462279        -2.183558        -0.712196
 H         1.804461        -1.877275         1.039376
 H         3.051383         1.921519        -1.895594
