19
Iteration:  1771charge 0 multiplicity 1
 C        -0.123590         0.087281        -0.239960
 C         1.303442         0.063904         0.094934
 C         2.157126         0.611603         1.336056
 C         3.343611         0.500611         0.453626
 C         3.157108        -0.817817        -0.359763
 O         4.308509        -1.594075        -0.763636
 C         1.884228        -1.413504        -0.037632
 C         2.574881         0.480983        -0.856577
 O         2.777160         0.980675        -2.165069
 H        -0.645849        -0.364599         0.655586
 H        -0.639475         1.084140        -0.478189
 H        -0.272822        -0.509109        -1.110584
 H         1.942311         1.679855         1.646960
 H         2.051157        -0.061110         2.175429
 H         4.472778         0.947783         0.627291
 H         4.980538        -1.029993        -0.617300
 H         1.552005        -2.042751        -0.841033
 H         1.727675        -1.960778         0.930700
 H         2.634182         1.939651        -2.128024
