19
Iteration:   311charge 0 multiplicity 1
 C        -0.314669         0.233547        -0.071316
 C         1.299001         0.061820         0.031156
 C         2.166444         0.826947         1.170301
 C         3.390253         0.490709         0.464226
 C         3.278229        -0.859202        -0.257439
 O         4.325129        -1.515881        -0.963688
 C         1.913679        -1.438836         0.205486
 C         2.546533         0.304646        -0.909046
 O         2.735847         0.857955        -2.186022
 H        -0.713957        -0.571587         0.422690
 H        -0.563407         1.138524         0.515821
 H        -0.799526         0.323413        -1.142482
 H         2.099387         1.862415         1.364289
 H         2.182974         0.341259         2.178282
 H         4.366835         1.063628         0.474679
 H         4.965343        -1.798652        -0.413126
 H         1.360925        -1.995541        -0.588628
 H         1.812887        -1.843029         1.159316
 H         3.689577         0.599515        -2.493763
