19
Iteration:  1005
 C         0.016501         0.219020        -0.267645
 C         1.387314        -0.065761         0.172728
 C         2.120668         0.778420         1.272944
 C         3.354869         0.524171         0.419157
 C         3.257581        -0.864966        -0.307859
 O         4.355024        -1.493074        -0.780173
 C         2.001947        -1.406171         0.086285
 C         2.545767         0.371843        -0.927883
 O         2.457270         0.860547        -2.205868
 H        -0.658586         0.057183         0.674105
 H        -0.104390         1.248296        -0.553759
 H        -0.339107        -0.390286        -1.036462
 H         1.788388         1.773212         1.357256
 H         2.140098         0.169861         2.265424
 H         4.335857         1.044856         0.665044
 H         4.391363        -2.306399        -0.456908
 H         1.468247        -1.927972        -0.672335
 H         2.085438        -2.012225         0.967783
 H         2.413031         1.811851        -2.118925
