19
Iteration:  4408
 C        -0.062570         0.357066        -0.233807
 C         1.316022        -0.078226        -0.005745
 C         2.116643         0.539364         1.271763
 C         3.312357         0.466687         0.440031
 C         3.262883        -0.922688        -0.389558
 O         4.484617        -1.542806        -0.577383
 C         1.887045        -1.440108         0.028150
 C         2.603568         0.427969        -0.983344
 O         2.528733         1.094873        -2.143451
 H        -0.583596         0.342361         0.716513
 H        -0.187800         1.269173        -0.749521
 H        -0.706483        -0.358647        -0.712653
 H         1.715915         1.646412         1.439365
 H         2.040636         0.101577         2.404667
 H         4.313258         0.845077         0.691287
 H         4.273172        -2.347906        -0.913854
 H         1.499103        -2.150221        -0.791044
 H         1.674593        -2.027834         0.927906
 H         3.253605         1.678847        -2.315200
