19
Iteration:  3148charge 0 multiplicity 1
 C        -0.024429         0.268296        -0.359929
 C         1.356598        -0.011086         0.014639
 C         2.049022         0.680340         1.230644
 C         3.333733         0.471524         0.420476
 C         3.210449        -0.939001        -0.346723
 O         4.422027        -1.636469        -0.683529
 C         1.961297        -1.494335         0.172398
 C         2.596905         0.330366        -0.927013
 O         2.566006         1.170265        -2.081873
 H        -0.639648         0.018075         0.462128
 H        -0.194389         1.299852        -0.468179
 H        -0.366137        -0.358454        -1.156080
 H         1.686727         1.760088         1.303113
 H         1.850305         0.269143         2.322688
 H         4.353265         0.692746         0.645164
 H         4.167749        -1.925647        -1.637774
 H         1.504522        -2.253850        -0.436981
 H         1.941534        -1.760624         1.247752
 H         2.822819         2.071370        -1.794471
