19
Iteration:  4238
 C        -0.079945         0.362886        -0.183457
 C         1.346436        -0.071391         0.064397
 C         2.049754         0.598003         1.240097
 C         3.366891         0.508533         0.458913
 C         3.241052        -0.849408        -0.350354
 O         4.383066        -1.515913        -0.659733
 C         1.885901        -1.533540        -0.034774
 C         2.594828         0.404816        -0.899074
 O         2.707899         1.013965        -2.158669
 H        -0.749300         0.316829         0.755285
 H        -0.265937         1.342229        -0.552611
 H        -0.551487        -0.388536        -0.785826
 H         1.668031         1.633446         1.050697
 H         1.860179        -0.006568         2.106828
 H         4.390872         0.802504         0.616721
 H         4.276594        -2.376858        -0.933982
 H         1.391637        -2.139991        -0.820143
 H         1.847863        -2.117897         0.928118
 H         2.561709         1.958931        -2.123862
