19
Iteration:  2721charge 0 multiplicity 1
 C         0.007669         0.411082        -0.197335
 C         1.318043        -0.171460         0.102916
 C         2.004250         0.645527         1.170310
 C         3.300564         0.546272         0.385598
 C         3.256403        -0.889703        -0.319945
 O         4.471254        -1.522319        -0.675298
 C         1.858000        -1.638683         0.020578
 C         2.515979         0.338898        -0.941808
 O         2.687348         1.045488        -2.054658
 H        -0.738518         0.318143         0.685369
 H         0.047415         1.496147        -0.445317
 H        -0.463435        -0.169239        -0.945427
 H         1.535080         1.713923         1.222501
 H         1.910435         0.400707         2.289126
 H         4.310393         1.043779         0.331314
 H         4.443427        -1.654311        -1.552075
 H         1.513681        -2.133280        -0.902899
 H         1.823848        -2.296271         0.880650
 H         2.690255         2.026449        -1.827076
