19
Iteration:  4606
 C        -0.081071         0.225059        -0.240878
 C         1.333274        -0.039447         0.006171
 C         2.011637         0.627039         1.259169
 C         3.327433         0.445889         0.466490
 C         3.223574        -0.841881        -0.307773
 O         4.296843        -1.631607        -0.718093
 C         1.949697        -1.467847         0.062366
 C         2.633070         0.409054        -0.929160
 O         2.703563         1.125924        -2.068836
 H        -0.849690         0.335328         0.651536
 H        -0.085699         1.382491        -0.420567
 H        -0.469694        -0.198070        -1.188112
 H         1.689777         1.721131         1.428229
 H         1.956976         0.131173         2.171964
 H         4.219872         1.002614         0.662407
 H         5.116504        -1.220058        -0.830092
 H         1.650535        -1.912077        -0.941474
 H         1.935007        -2.153079         0.919069
 H         2.791079         0.733108        -2.957225
