19
Iteration:  3947
 C        -0.123476         0.251112        -0.314258
 C         1.319360        -0.032044         0.005360
 C         2.146559         0.617469         1.225498
 C         3.364582         0.483490         0.427786
 C         3.259177        -0.860368        -0.306902
 O         4.369417        -1.515805        -0.726975
 C         1.856681        -1.456740         0.192097
 C         2.528889         0.354254        -0.915903
 O         2.722593         1.015960        -2.122110
 H        -0.732842        -0.265882         0.344328
 H        -0.436424         1.297105        -0.177856
 H        -0.240398         0.084695        -1.385487
 H         1.773194         1.747342         1.496147
 H         2.036082         0.128203         2.296382
 H         4.427867         0.758628         0.613523
 H         4.199315        -1.965376        -1.563864
 H         1.308116        -2.160118        -0.448904
 H         1.751579        -1.868352         1.213459
 H         2.960382         1.981896        -1.873137
