19
Iteration:  3903
 C        -0.166560         0.296632        -0.083082
 C         1.317501        -0.033578        -0.012210
 C         2.078989         0.663865         1.205956
 C         3.347111         0.474763         0.510767
 C         3.159516        -0.829447        -0.324043
 O         4.353625        -1.449910        -0.692232
 C         1.879500        -1.489135        -0.081815
 C         2.626308         0.464518        -0.865256
 O         2.814315         0.759429        -2.163091
 H        -0.583766        -0.193245         0.709769
 H        -0.290020         1.314282         0.243896
 H        -0.537104         0.244173        -1.079671
 H         1.735973         1.843389         1.174115
 H         1.884013         0.165940         2.258248
 H         4.332819         0.884232         0.842713
 H         4.494907        -1.334906        -1.580884
 H         1.752689        -2.085106        -0.995778
 H         1.691511        -2.117877         0.809907
 H         2.664281         1.773963        -2.205288
