19
Iteration:  3295charge 0 multiplicity 1
 C        -0.142323         0.247314        -0.306246
 C         1.291161        -0.012478         0.044725
 C         2.075928         0.641355         1.188128
 C         3.358605         0.400569         0.433156
 C         3.217608        -0.904906        -0.280071
 O         4.385274        -1.573908        -0.833679
 C         1.889409        -1.445321         0.239105
 C         2.606922         0.358724        -0.867804
 O         2.704012         1.065740        -2.101221
 H        -0.873431         0.275145         0.512263
 H        -0.298823         1.243371        -0.753418
 H        -0.432814        -0.307749        -1.082542
 H         1.905942         1.764310         1.017091
 H         2.054696         0.078074         2.107148
 H         4.345966         0.641732         0.718159
 H         4.948828        -0.823136        -1.298929
 H         1.493028        -2.294441        -0.397865
 H         1.809574        -1.855067         1.287926
 H         2.786107         2.004991        -1.869299
