19
Iteration:  4738
 C        -0.099871         0.268074        -0.172492
 C         1.354725        -0.009715         0.051131
 C         2.142843         0.642483         1.220321
 C         3.330110         0.540348         0.399854
 C         3.202178        -0.850145        -0.367029
 O         4.413415        -1.619709        -0.501079
 C         1.853907        -1.478665        -0.173940
 C         2.632520         0.406302        -0.926700
 O         2.613998         1.089928        -2.085432
 H        -0.738074        -0.619551         0.232084
 H        -0.435244         1.272795         0.244797
 H        -0.368805         0.106071        -1.227234
 H         1.865261         1.766247         1.502135
 H         1.965640         0.040349         2.176036
 H         4.373365         0.619268         0.750682
 H         4.283786        -2.136472        -1.295548
 H         1.229946        -1.964785        -0.941233
 H         1.687628        -2.089857         0.690930
 H         3.438492         1.294731        -2.419273
