19
Iteration:  2467
 C        -0.051712         0.196380        -0.336893
 C         1.357099         0.040342        -0.007418
 C         1.979416         0.683027         1.256430
 C         3.389661         0.408680         0.604650
 C         3.249553        -0.884156        -0.364349
 O         4.419280        -1.513564        -0.864200
 C         1.881081        -1.481926         0.140218
 C         2.576132         0.426974        -0.786537
 O         2.624385         1.023155        -2.079261
 H        -0.740365        -0.390312         0.509159
 H        -0.346579         1.234821        -0.339415
 H        -0.266375        -0.192742        -1.430031
 H         1.890908         1.761863         1.224160
 H         1.720401         0.326672         2.270107
 H         4.420980         0.673555         1.011083
 H         4.239741        -1.600183        -1.716858
 H         1.419469        -2.160297        -0.667832
 H         1.707893        -1.927389         1.139396
 H         3.417160         1.479317        -2.280030
