19
Iteration:  2825charge 0 multiplicity 1
 C        -0.118605         0.306178        -0.182050
 C         1.331815        -0.007972         0.040491
 C         1.929232         0.733817         1.211281
 C         3.354075         0.416432         0.509586
 C         3.212780        -0.931159        -0.326860
 O         4.429414        -1.478057        -0.836568
 C         1.906529        -1.527800         0.154541
 C         2.604472         0.272584        -0.889408
 O         2.755679         0.998976        -2.125480
 H        -0.774265        -0.438443         0.307093
 H        -0.420654         1.363635         0.262934
 H        -0.469344         0.324465        -1.323310
 H         1.720332         1.744661         1.061014
 H         1.683351         0.395479         2.183026
 H         4.449546         0.702266         0.579560
 H         4.668670        -1.329677        -1.860108
 H         1.494683        -2.189100        -0.637445
 H         1.782928        -1.967930         1.163496
 H         3.000720         1.936327        -1.858279
