19
Iteration:   696
 C        -0.171856         0.043671        -0.055945
 C         1.310044         0.021980         0.031447
 C         2.163674         0.777573         1.188000
 C         3.382200         0.518887         0.348649
 C         3.190913        -0.801861        -0.333958
 O         4.286259        -1.629836        -0.809872
 C         1.884652        -1.319799         0.207093
 C         2.549021         0.383911        -1.003182
 O         2.782717         1.038605        -2.124168
 H        -0.586277        -0.474706         0.850478
 H        -0.617052         1.065430         0.012009
 H        -0.515098        -0.424118        -0.968071
 H         1.844783         1.776396         1.275651
 H         2.216356         0.313412         2.201802
 H         4.341894         1.084311         0.272998
 H         4.962815        -1.768255        -0.250395
 H         1.442514        -2.010400        -0.617922
 H         1.816660        -1.908066         1.126722
 H         3.019759         0.350903        -2.855530
