19
Iteration:   128charge 0 multiplicity 1
 C        -0.206653         0.211049        -0.045852
 C         1.294961        -0.006752         0.129152
 C         2.102908         0.838168         1.204505
 C         3.376406         0.603087         0.328086
 C         3.260828        -0.847501        -0.241233
 O         4.306953        -1.509449        -0.933433
 C         1.865287        -1.471836         0.150252
 C         2.552830         0.345646        -0.942231
 O         2.842862         0.876140        -2.146554
 H        -0.810797        -0.270326         0.854502
 H        -0.487434         1.285781        -0.170132
 H        -0.516662        -0.328263        -0.992507
 H         1.687616         1.933253         1.335451
 H         2.179657         0.334109         2.267930
 H         4.349481         1.006384         0.450935
 H         4.769260        -1.952258        -0.337776
 H         1.550338        -1.955263        -0.746981
 H         1.709674        -2.113145         1.078786
 H         2.951814         0.166535        -2.765826
