19
Iteration:   360charge 0 multiplicity 1
 C        -0.178371         0.250259        -0.105330
 C         1.317077         0.009760         0.096873
 C         2.157050         0.741054         1.309332
 C         3.382246         0.590779         0.337659
 C         3.244098        -0.848072        -0.254645
 O         4.220411        -1.448021        -0.920116
 C         1.890858        -1.498095         0.123096
 C         2.559020         0.386494        -0.897036
 O         2.846928         0.828874        -2.189345
 H        -0.664500        -0.201456         0.872914
 H        -0.429844         1.296391        -0.224578
 H        -0.551439        -0.313942        -0.893873
 H         1.774427         1.817287         1.386839
 H         2.069082         0.343768         2.261478
 H         4.309552         1.072650         0.345311
 H         4.883968        -1.818400        -0.262740
 H         1.610985        -2.103156        -0.738519
 H         1.732836        -1.994262         1.188975
 H         2.462628         0.256007        -2.818542
