19
Iteration:  4335charge 0 multiplicity 1
 C        -0.110661         0.213788        -0.336091
 C         1.340947         0.053700         0.005540
 C         2.001269         0.724784         1.299903
 C         3.346790         0.544579         0.556928
 C         3.264159        -0.870610        -0.304310
 O         4.252403        -1.608206        -0.900124
 C         1.943446        -1.441910         0.149772
 C         2.647599         0.379336        -0.826743
 O         2.771300         0.893358        -2.092986
 H        -0.698907        -0.643414         0.209966
 H        -0.567109         1.280177         0.014201
 H        -0.502779         0.011468        -1.382397
 H         1.955415         1.843393         1.216012
 H         2.091123         0.171264         2.250969
 H         4.365591         0.877939         0.806556
 H         4.540781        -1.075377        -1.628119
 H         1.512724        -2.132918        -0.641333
 H         2.020176        -1.871419         1.166620
 H         2.439647         1.752597        -1.968137
