19
Iteration:   492charge 0 multiplicity 1
 C        -0.146955         0.214132        -0.102789
 C         1.369573         0.035334         0.111730
 C         2.149163         0.771613         1.258298
 C         3.350035         0.632903         0.295316
 C         3.194609        -0.844570        -0.286502
 O         4.264684        -1.555391        -0.887632
 C         1.912832        -1.492537         0.157978
 C         2.513125         0.314148        -0.911719
 O         2.807768         0.921217        -2.130886
 H        -0.747590        -0.471953         0.581888
 H        -0.490640         1.219570        -0.037059
 H        -0.305591        -0.083980        -1.103280
 H         1.868058         1.902261         1.171099
 H         2.147886         0.348987         2.269238
 H         4.394857         1.082431         0.360306
 H         5.002239        -1.724769        -0.120479
 H         1.404106        -1.969842        -0.611724
 H         1.973463        -2.194636         1.009330
 H         2.222432         0.499109        -2.801342
