19
Iteration:  1786
 C        -0.112634         0.072547        -0.231300
 C         1.374319         0.030801         0.044667
 C         2.056580         0.630300         1.257775
 C         3.352469         0.512441         0.444069
 C         3.242902        -0.825821        -0.389793
 O         4.254584        -1.656099        -0.736330
 C         1.899525        -1.380650         0.080978
 C         2.616709         0.434491        -0.933421
 O         2.769946         1.088170        -2.092676
 H        -0.684184        -0.575046         0.528589
 H        -0.492499         1.026672        -0.307238
 H        -0.340296        -0.369677        -1.245138
 H         1.759002         1.636836         1.533583
 H         2.080195         0.158880         2.331795
 H         4.310372         0.909586         0.717166
 H         5.099881        -1.241322        -1.155429
 H         1.235408        -1.948187        -0.683269
 H         1.904501        -2.087992         1.016573
 H         2.314986         1.915697        -2.055722
