19
Iteration:  2473charge 0 multiplicity 1
 C        -0.100083         0.205698        -0.338157
 C         1.305646         0.043294         0.042583
 C         2.033769         0.695583         1.230601
 C         3.383441         0.359712         0.551287
 C         3.224734        -0.871378        -0.286059
 O         4.418142        -1.441724        -0.843465
 C         1.883112        -1.486543         0.104660
 C         2.618837         0.340905        -0.826312
 O         2.636174         1.026853        -2.036261
 H        -0.707417        -0.188888         0.367681
 H        -0.437301         1.275429        -0.437436
 H        -0.206154        -0.276262        -1.267781
 H         1.822349         1.793753         1.112268
 H         1.845933         0.202016         2.212720
 H         4.443205         0.624374         0.670118
 H         4.297639        -1.626781        -1.867682
 H         1.441893        -2.098783        -0.645053
 H         1.690936        -1.964723         1.079374
 H         3.481728         1.482134        -2.188480
