19
Iteration:  3263charge 0 multiplicity 1
 C        -0.083345         0.336549        -0.163106
 C         1.339255        -0.054813         0.070472
 C         2.000014         0.662429         1.199473
 C         3.224181         0.560638         0.462788
 C         3.222517        -0.847895        -0.343650
 O         4.357690        -1.573213        -0.821642
 C         1.936427        -1.534073         0.020330
 C         2.541644         0.410618        -0.816976
 O         2.844847         0.857477        -2.100007
 H        -0.793870         0.080629         0.722727
 H        -0.049285         1.453977        -0.163760
 H        -0.545345        -0.151662        -1.008455
 H         1.622181         1.726319         1.313767
 H         1.947453         0.334895         2.196073
 H         4.145517         1.057998         0.523951
 H         4.971024        -0.988386        -1.145990
 H         1.649877        -2.129837        -0.902648
 H         1.961972        -2.090214         0.989032
 H         2.421479         1.770779        -2.236381
