19
Iteration:  2510charge 0 multiplicity 1
 C        -0.080589         0.337105        -0.246309
 C         1.311352        -0.112431         0.129045
 C         2.048574         0.618921         1.271289
 C         3.276660         0.488379         0.367085
 C         3.216646        -0.865792        -0.377352
 O         4.483029        -1.459180        -0.681182
 C         1.855064        -1.556859         0.037098
 C         2.502500         0.385530        -0.902261
 O         2.745888         1.041745        -2.096900
 H        -0.850184         0.268576         0.626180
 H        -0.117769         1.252511        -0.794673
 H        -0.504576        -0.484554        -0.945879
 H         1.613206         1.546581         1.609306
 H         2.085650         0.124991         2.195728
 H         4.346757         0.811099         0.393122
 H         4.275192        -1.889539        -1.590285
 H         1.563147        -2.210225        -0.807998
 H         1.895354        -2.066645         0.969923
 H         3.207103         1.819840        -1.849823
