19
Iteration:  3486charge 0 multiplicity 1
 C        -0.137081         0.273805        -0.281237
 C         1.301020        -0.024698         0.136918
 C         2.127050         0.742680         1.264560
 C         3.315599         0.493310         0.450257
 C         3.194771        -0.920095        -0.329412
 O         4.365119        -1.477755        -0.923026
 C         1.849979        -1.548253         0.160249
 C         2.539220         0.337025        -0.825961
 O         2.857136         0.930406        -2.036653
 H        -0.901319         0.105345         0.450250
 H        -0.152202         1.232304        -0.738746
 H        -0.346938        -0.406874        -1.117761
 H         1.805523         1.914353         1.116315
 H         1.933567         0.157963         2.173230
 H         4.298565         0.884688         0.492733
 H         4.375791        -1.211623        -1.849346
 H         1.292267        -2.138417        -0.574686
 H         1.643184        -1.960612         1.199119
 H         2.952047         1.955564        -1.999392
