19
Iteration:  3753charge 0 multiplicity 1
 C        -0.144162         0.269873        -0.278803
 C         1.382503         0.024369         0.038515
 C         2.181962         0.573375         1.228743
 C         3.404919         0.470509         0.340741
 C         3.196231        -0.897150        -0.436653
 O         4.433380        -1.585845        -0.520134
 C         1.852031        -1.411980         0.001663
 C         2.568152         0.375219        -0.888193
 O         2.551488         1.105993        -2.070805
 H        -0.789496        -0.514489         0.359148
 H        -0.268803         1.314952        -0.240949
 H        -0.443097        -0.224355        -1.290294
 H         1.900151         1.612661         1.575710
 H         2.133321         0.114665         2.231510
 H         4.418326         0.864462         0.401484
 H         4.485911        -2.431648        -1.082808
 H         1.332785        -1.971090        -0.843090
 H         1.816238        -1.872613         1.025343
 H         3.091396         1.967688        -2.052939
