19
Iteration:  2235
 C        -0.142850         0.177859        -0.308020
 C         1.331307         0.015135         0.026720
 C         2.130365         0.536583         1.272417
 C         3.409899         0.449083         0.420020
 C         3.273522        -0.880405        -0.377965
 O         4.367410        -1.729134        -0.640654
 C         1.922056        -1.393619         0.005576
 C         2.593218         0.526086        -0.918682
 O         2.551798         1.149571        -2.103669
 H        -0.814844        -0.522787         0.319489
 H        -0.417482         1.149259        -0.205177
 H        -0.258512        -0.049979        -1.385975
 H         1.904464         1.628587         1.462532
 H         1.995459        -0.131333         2.211282
 H         4.261071         0.855472         0.877598
 H         5.123050        -1.004527        -0.431793
 H         1.403804        -2.060908        -0.716412
 H         2.062198        -1.814627         1.031814
 H         2.555575         2.077954        -2.004574
