19
Iteration:   361charge 0 multiplicity 1
 C        -0.189618         0.254055        -0.105031
 C         1.317944         0.013472         0.099235
 C         2.153975         0.748659         1.306526
 C         3.391598         0.592778         0.340642
 C         3.254345        -0.851374        -0.250014
 O         4.227166        -1.453335        -0.922789
 C         1.891650        -1.497590         0.122258
 C         2.559132         0.383311        -0.900283
 O         2.836976         0.833594        -2.191220
 H        -0.699182        -0.188248         0.873688
 H        -0.429735         1.292849        -0.262138
 H        -0.556546        -0.356613        -0.910298
 H         1.800871         1.817613         1.424697
 H         2.041556         0.287896         2.298089
 H         4.324968         1.072204         0.340476
 H         4.949188        -1.869140        -0.230624
 H         1.586140        -2.132576        -0.769419
 H         1.697447        -1.965782         1.189584
 H         2.449744         0.273447        -2.804928
