19
Iteration:   527charge 0 multiplicity 1
 C        -0.205555         0.212904         0.025265
 C         1.316824         0.044233         0.047989
 C         2.102427         0.729745         1.143582
 C         3.405847         0.540066         0.436570
 C         3.201790        -0.852130        -0.300067
 O         4.285245        -1.443499        -0.943984
 C         1.871409        -1.485836         0.235525
 C         2.589552         0.424663        -0.920934
 O         2.823142         0.867681        -2.227174
 H        -0.726813        -0.542924         0.569558
 H        -0.542553         1.156160         0.434435
 H        -0.643367         0.129828        -1.039320
 H         1.779164         1.817926         1.027403
 H         1.826167         0.517095         2.139979
 H         4.434458         0.932865         0.630704
 H         4.786942        -2.266329        -0.335855
 H         1.354339        -2.190751        -0.525708
 H         1.934926        -1.864269         1.259874
 H         3.411543         0.198335        -2.755388
