19
Iteration:   445charge 0 multiplicity 1
 C        -0.082345         0.307020        -0.313317
 C         1.377374         0.066901         0.022435
 C         2.153010         0.783994         1.169208
 C         3.428125         0.462103         0.309650
 C         3.227658        -0.938300        -0.347123
 O         4.442472        -1.698239        -0.766854
 C         1.952784        -1.462596         0.235517
 C         2.530847         0.291183        -0.909807
 O         2.413746         1.125899        -1.980190
 H        -0.586538         0.398470         0.698518
 H        -0.278118         1.286889        -0.848085
 H        -0.532173        -0.478846        -0.875888
 H         1.946439         1.912868         1.414372
 H         2.115954         0.080543         2.120642
 H         4.185633         1.137782         0.141023
 H         5.322627        -1.673387        -0.023782
 H         1.548778        -2.163219        -0.435036
 H         1.914543        -1.882650         1.220389
 H         2.344136         0.445704        -2.764215
