19
Iteration:  4690
 C        -0.120145         0.286772        -0.290686
 C         1.336402        -0.015549         0.052909
 C         1.995464         0.643234         1.255484
 C         3.334913         0.464463         0.465643
 C         3.193494        -0.928489        -0.443286
 O         4.441472        -1.542045        -0.737308
 C         1.879765        -1.448770         0.092046
 C         2.667718         0.359799        -0.871587
 O         2.721687         1.168995        -2.004818
 H        -0.848336         0.016516         0.434345
 H        -0.140979         1.288158        -0.568664
 H        -0.449320        -0.313827        -1.116349
 H         1.537675         1.679565         1.307420
 H         1.904086         0.215155         2.376098
 H         4.321920         0.825934         0.677702
 H         4.273743        -2.375364        -1.349200
 H         1.459284        -2.216440        -0.559111
 H         1.841692        -1.961989         1.075393
 H         2.782266         0.516693        -2.827398
