19
Iteration:  4021charge 0 multiplicity 1
 C        -0.095806         0.262458        -0.321482
 C         1.313756        -0.013380         0.055157
 C         2.093401         0.597691         1.233836
 C         3.405889         0.444683         0.411918
 C         3.215315        -0.885744        -0.394331
 O         4.409911        -1.554830        -0.617811
 C         1.860652        -1.478191         0.106222
 C         2.570600         0.418994        -0.914102
 O         2.625130         1.040397        -2.093196
 H        -0.640584         0.428725         0.675008
 H        -0.243392         1.395164        -0.700954
 H        -0.432958        -0.327893        -1.206244
 H         1.886108         1.630139         1.306695
 H         2.143107         0.135330         2.206359
 H         4.441628         0.829042         0.571111
 H         4.459684        -1.831157        -1.477312
 H         1.551644        -2.275198        -0.578395
 H         2.030983        -1.898356         1.124148
 H         2.611527         2.010957        -1.971521
