19
Iteration:  4229
 C        -0.076537         0.305181        -0.214540
 C         1.366878        -0.056457         0.070424
 C         2.097691         0.590689         1.230003
 C         3.312379         0.484808         0.384301
 C         3.166279        -0.861999        -0.399186
 O         4.432722        -1.545232        -0.631313
 C         1.888091        -1.507808        -0.017587
 C         2.572339         0.434608        -0.878542
 O         2.691605         1.023638        -2.131064
 H        -0.574445         0.433014         0.748389
 H        -0.053940         1.205857        -0.712110
 H        -0.533775        -0.299324        -0.943178
 H         1.722060         1.656218         1.549276
 H         2.036145         0.278044         2.326229
 H         4.261756         0.945130         0.698662
 H         4.076935        -2.356721        -0.813850
 H         1.449034        -1.969892        -0.910944
 H         1.859158        -2.154363         0.886192
 H         2.584713         1.965909        -2.036366
