19
Iteration:  4790charge 0 multiplicity 1
 C        -0.076203         0.390475        -0.374810
 C         1.342626        -0.057668         0.025989
 C         2.056013         0.656480         1.254044
 C         3.329643         0.524625         0.456145
 C         3.209444        -0.943816        -0.328585
 O         4.344227        -1.515258        -0.775169
 C         1.927817        -1.556592         0.147357
 C         2.585332         0.324413        -0.863867
 O         2.755579         1.007261        -2.030818
 H        -0.831089        -0.167220         0.214874
 H        -0.253869         1.377817        -0.104024
 H        -0.203746         0.158941        -1.395606
 H         1.710704         1.699564         1.514697
 H         1.856397         0.156581         2.279850
 H         4.375362         0.886878         0.483232
 H         4.304007        -1.850785        -1.745464
 H         1.468395        -2.052335        -0.745683
 H         1.796217        -2.053149         1.163988
 H         2.427872         1.940686        -1.866288
