19
Iteration:  3589charge 0 multiplicity 1
 C        -0.049384         0.306659        -0.184860
 C         1.335878         0.002307        -0.002922
 C         2.108291         0.614432         1.209702
 C         3.326079         0.397814         0.410956
 C         3.230263        -0.889022        -0.412073
 O         4.421888        -1.585044        -0.557865
 C         1.867822        -1.456187         0.048028
 C         2.626342         0.363039        -0.968139
 O         2.604452         1.115397        -2.138792
 H        -0.691710        -0.339205         0.333209
 H        -0.204311         1.367129         0.078655
 H        -0.439837         0.092165        -1.253194
 H         1.771602         1.678134         1.496127
 H         1.962961         0.188835         2.262178
 H         4.363809         0.611881         0.704927
 H         4.464601        -2.110139        -1.394031
 H         1.501927        -2.168386        -0.726086
 H         1.867473        -1.885294         1.067599
 H         2.378377         2.039737        -1.936373
