19
Iteration:  2485charge 0 multiplicity 1
 C        -0.177048         0.238031        -0.349338
 C         1.359176        -0.051735         0.075209
 C         2.127531         0.689386         1.228340
 C         3.362521         0.425386         0.414577
 C         3.206184        -0.987230        -0.296918
 O         4.398660        -1.354827        -0.780891
 C         1.832926        -1.500815         0.075456
 C         2.607289         0.296434        -0.837640
 O         2.680500         1.034396        -1.995068
 H        -0.848617        -0.080442         0.357003
 H        -0.329021         1.317463        -0.638175
 H        -0.472761        -0.338508        -1.218357
 H         1.931438         1.794332         1.407596
 H         1.996850         0.372437         2.274039
 H         4.368726         0.976574         0.585848
 H         4.163217        -1.563320        -1.598357
 H         1.440236        -1.991726        -0.775803
 H         1.870793        -2.105793         0.967651
 H         3.525493         1.461037        -1.960029
