19
Iteration:  1741charge 0 multiplicity 1
 C        -0.150198         0.318789        -0.169710
 C         1.276912        -0.045203         0.082794
 C         2.074273         0.560703         1.220253
 C         3.302253         0.538297         0.483780
 C         3.235553        -0.872608        -0.282882
 O         4.409821        -1.378101        -0.891201
 C         1.904918        -1.469768        -0.046843
 C         2.599671         0.367936        -0.855784
 O         2.726730         0.854403        -2.123355
 H        -0.743988         0.005693         0.780202
 H        -0.292315         1.317857        -0.363366
 H        -0.566790        -0.225349        -1.001459
 H         1.756550         1.581224         1.395058
 H         1.942491         0.153301         2.280821
 H         4.278133         1.017838         0.798184
 H         4.975710        -1.737821        -0.125002
 H         1.636942        -2.136086        -0.913884
 H         1.669024        -2.117357         0.879114
 H         2.975662         1.769245        -1.993746
