19
Iteration:  4275charge 0 multiplicity 1
 C        -0.151582         0.291707        -0.141515
 C         1.259727        -0.008919         0.050338
 C         2.009834         0.645641         1.227233
 C         3.367552         0.502666         0.440488
 C         3.202800        -0.878297        -0.339409
 O         4.426786        -1.495549        -0.789047
 C         1.823998        -1.466965         0.047636
 C         2.574381         0.419504        -0.834748
 O         2.859148         0.842164        -2.121753
 H        -0.686857        -0.259448         0.553281
 H        -0.365343         1.299694        -0.096898
 H        -0.328965        -0.022764        -1.152022
 H         1.764691         1.666103         1.393125
 H         1.980900         0.345955         2.301979
 H         4.393824         0.925142         0.533167
 H         4.541494        -1.319254        -1.726690
 H         1.399208        -2.056045        -0.764890
 H         1.715099        -1.994107         1.002086
 H         2.713108         1.824550        -2.173603
