19
Iteration:  1072charge 0 multiplicity 1
 C        -0.114531         0.053385        -0.100226
 C         1.352074        -0.012232         0.081519
 C         2.097209         0.803230         1.105075
 C         3.300787         0.547002         0.294870
 C         3.222600        -0.913961        -0.387007
 O         4.419293        -1.553006        -0.682527
 C         1.991274        -1.495253         0.179386
 C         2.533880         0.385042        -0.956654
 O         2.652786         1.186685        -2.092934
 H        -0.694645        -0.506274         0.750834
 H        -0.406552         1.086680         0.072556
 H        -0.520416        -0.121181        -1.072269
 H         1.627811         1.751278         0.933287
 H         2.176853         0.471956         2.196688
 H         4.236726         0.944003         0.432818
 H         4.270520        -2.623704        -0.727212
 H         1.499078        -2.206341        -0.420034
 H         2.136291        -1.829699         1.204036
 H         2.661975         0.532327        -2.872298
