19
Iteration:  3639
 C        -0.099873         0.227479        -0.312659
 C         1.302105         0.036622         0.085777
 C         2.044492         0.669355         1.320360
 C         3.373976         0.489228         0.514954
 C         3.217296        -0.868248        -0.243355
 O         4.280272        -1.410728        -0.940991
 C         1.876517        -1.502050         0.101101
 C         2.587380         0.379961        -0.779829
 O         2.863218         0.834736        -2.130616
 H        -0.889322        -0.086103         0.584759
 H        -0.341493         1.344943        -0.496099
 H        -0.341151        -0.338289        -1.186487
 H         1.793881         1.719772         1.455857
 H         1.953099         0.262741         2.302163
 H         4.390411         0.981389         0.580736
 H         4.069128        -1.421499        -1.902142
 H         1.328493        -1.994290        -0.692375
 H         1.773768        -2.176473         0.994858
 H         3.087242         1.758893        -2.035294
