19
Iteration:    60
 C        -0.016382         0.285670        -0.337482
 C         1.396511        -0.014523         0.086498
 C         2.199870         0.805687         1.172760
 C         3.426016         0.595288         0.309573
 C         3.326515        -0.927247        -0.237223
 O         4.402728        -1.650770        -0.706596
 C         1.903039        -1.463058         0.190786
 C         2.523129         0.287291        -0.919471
 O         2.356277         0.962071        -2.115334
 H        -0.692897        -0.532334        -0.115400
 H        -0.411127         1.232961         0.080448
 H         0.020615         0.424614        -1.524125
 H         1.725650         1.896532         1.217396
 H         2.313421         0.282061         2.193385
 H         4.423265         1.043521         0.230870
 H         4.958092        -1.955395         0.173533
 H         1.609613        -2.008511        -0.746611
 H         1.655718        -2.015514         1.115020
 H         1.881459         1.842526        -1.966155
