19
Iteration:  1467
 C        -0.138373         0.088576        -0.254213
 C         1.328361        -0.094215         0.121453
 C         2.125799         0.761406         1.159644
 C         3.371954         0.517818         0.394913
 C         3.250173        -0.846656        -0.353786
 O         4.468168        -1.533672        -0.678978
 C         1.982989        -1.463315         0.134976
 C         2.557353         0.378062        -0.917347
 O         2.525384         1.088323        -2.109403
 H        -0.793127        -0.291941         0.581907
 H        -0.382220         1.122533        -0.294769
 H        -0.426782        -0.256302        -1.220118
 H         1.717913         1.716778         1.242924
 H         2.027431         0.262116         2.194101
 H         4.321716         0.869458         0.516763
 H         4.103377        -2.143964        -1.495830
 H         1.459169        -2.072810        -0.609031
 H         2.043434        -2.018554         1.103937
 H         3.031603         1.870485        -2.134745
