19
Iteration:  3709
 C        -0.105153         0.335202        -0.165499
 C         1.363979        -0.089536         0.053573
 C         2.017977         0.633950         1.218402
 C         3.324158         0.546573         0.429345
 C         3.223930        -0.831200        -0.362076
 O         4.379103        -1.506830        -0.746900
 C         1.847839        -1.504856         0.021693
 C         2.617691         0.349032        -0.857129
 O         2.816189         0.912042        -2.078452
 H        -0.723249        -0.118059         0.762841
 H        -0.086406         1.404990        -0.078819
 H        -0.620184        -0.002407        -1.129380
 H         1.462891         1.699694         1.384637
 H         1.802171         0.335500         2.305262
 H         4.280442         0.961806         0.571696
 H         4.249630        -1.566365        -1.811212
 H         1.516276        -2.060446        -0.903514
 H         1.767682        -2.241483         0.887073
 H         2.489231         1.854965        -2.144227
