19
Iteration:  4803
 C         0.005012         0.324313        -0.385415
 C         1.326020        -0.036447         0.134882
 C         2.006426         0.676584         1.348029
 C         3.309214         0.487515         0.464052
 C         3.223769        -0.843054        -0.337872
 O         4.369891        -1.578718        -0.852801
 C         1.860244        -1.516388         0.079089
 C         2.551789         0.344987        -0.796397
 O         2.810345         0.986706        -2.051795
 H        -0.872615        -0.070200         0.171662
 H        -0.021227         1.361594        -0.505591
 H        -0.177669         0.043070        -1.367259
 H         1.746294         1.820439         1.188036
 H         1.899034         0.116302         2.381543
 H         4.180738         1.133796         0.520170
 H         4.146156        -1.562717        -1.748567
 H         1.373447        -2.351460        -0.469092
 H         1.958476        -1.983999         1.071227
 H         2.239526         1.737019        -2.142491
