19
Iteration:  4884
 C        -0.184194         0.381070        -0.161265
 C         1.309036        -0.095219         0.015849
 C         2.060887         0.622419         1.258896
 C         3.246044         0.483401         0.446869
 C         3.169074        -0.899224        -0.340262
 O         4.399356        -1.462447        -0.702460
 C         1.893413        -1.597124         0.008652
 C         2.585674         0.414022        -0.923014
 O         2.893285         0.960395        -2.125430
 H        -0.747999         0.196317         0.697265
 H        -0.353154         1.498660        -0.231999
 H        -0.808418        -0.128235        -0.946542
 H         1.715167         1.657502         1.398160
 H         2.024372         0.241526         2.258049
 H         4.241870         0.961868         0.615378
 H         4.453822        -1.776275        -1.573531
 H         1.609412        -2.084698        -0.875544
 H         1.826466        -2.088333         0.907881
 H         3.139885         1.864756        -1.976173
