19
Iteration:  2973
 C        -0.089651         0.271556        -0.291701
 C         1.329085        -0.054756         0.084140
 C         2.070408         0.695802         1.270617
 C         3.346273         0.511945         0.451871
 C         3.256537        -0.877564        -0.328744
 O         4.327478        -1.636070        -0.759085
 C         1.941191        -1.505784         0.122469
 C         2.611652         0.385790        -0.872329
 O         2.641800         1.042508        -2.128865
 H        -0.777440        -0.320155         0.481904
 H        -0.402694         1.304616        -0.355085
 H        -0.397300        -0.106318        -1.311236
 H         1.757760         1.777889         1.131562
 H         1.826849         0.393500         2.255594
 H         4.346290         1.047108         0.561770
 H         4.629229        -1.351758        -1.569466
 H         1.652440        -2.236593        -0.646758
 H         1.979837        -2.000392         1.124511
 H         3.024922         1.885911        -2.002730
