19
Iteration:  3574charge 0 multiplicity 1
 C        -0.157659         0.292518        -0.240684
 C         1.390244        -0.030023         0.026498
 C         2.164674         0.543607         1.192590
 C         3.457664         0.473311         0.340787
 C         3.192540        -0.922008        -0.369828
 O         4.435541        -1.605018        -0.451633
 C         1.848479        -1.463693        -0.016091
 C         2.625436         0.441703        -0.916869
 O         2.543564         1.137898        -2.146360
 H        -0.794410        -0.221673         0.506133
 H        -0.513945         1.266967         0.021728
 H        -0.390438         0.144805        -1.203391
 H         1.972498         1.733407         1.233530
 H         2.195226        -0.094365         2.117968
 H         4.508833         0.764974         0.537072
 H         4.409035        -2.201067        -1.343327
 H         1.274464        -1.949803        -0.789213
 H         1.665195        -2.102358         0.883052
 H         2.491551         2.137083        -1.892264
