19
Iteration:  2379
 C        -0.067065         0.321466        -0.208500
 C         1.386651        -0.079064        -0.076291
 C         1.993132         0.621302         1.225929
 C         3.344239         0.330280         0.497117
 C         3.159773        -0.890084        -0.399955
 O         4.472694        -1.436248        -0.679006
 C         1.881493        -1.530176         0.008690
 C         2.634343         0.422163        -0.881141
 O         2.667136         1.095198        -2.068735
 H        -0.690615        -0.201395         0.590839
 H        -0.185774         1.353844        -0.075735
 H        -0.529900        -0.020449        -1.169718
 H         1.843874         1.686747         1.107653
 H         1.887519         0.140330         2.218515
 H         4.335050         0.811377         0.835021
 H         4.405452        -2.335302        -1.184004
 H         1.353640        -2.322276        -0.640795
 H         1.869694        -1.917565         1.050081
 H         2.227731         1.944140        -2.064382
