19
Iteration:   409charge 0 multiplicity 1
 C         0.010260         0.299196        -0.217838
 C         1.391153        -0.044411         0.090703
 C         2.165090         0.836696         1.156125
 C         3.383177         0.472558         0.362779
 C         3.183240        -0.920056        -0.307519
 O         4.314814        -1.588996        -0.752166
 C         1.964674        -1.604518         0.194460
 C         2.569768         0.332754        -0.934621
 O         2.443021         1.158364        -2.104656
 H        -0.562818         0.628891         0.597271
 H         0.143009         1.128404        -0.977426
 H        -0.584619        -0.562124        -0.770081
 H         1.753347         1.810441         1.195241
 H         2.184374         0.389531         2.265212
 H         4.458950         0.802454         0.266534
 H         4.817469        -1.848277         0.199540
 H         1.496714        -2.284172        -0.640024
 H         2.286322        -2.172858         1.059561
 H         2.598011         0.567917        -2.920793
