19
Iteration:  2631charge 0 multiplicity 1
 C        -0.101548         0.292159        -0.316150
 C         1.300176        -0.047084         0.056672
 C         2.006457         0.702267         1.183630
 C         3.314227         0.474491         0.457102
 C         3.269006        -0.853108        -0.309127
 O         4.405032        -1.590096        -0.854173
 C         1.963915        -1.537866         0.182621
 C         2.628744         0.385149        -0.817126
 O         2.641154         1.118724        -2.023989
 H        -0.813157        -0.384035         0.235021
 H        -0.354994         1.229521         0.053399
 H        -0.306714         0.169884        -1.394751
 H         1.754680         1.838534         1.256691
 H         1.862500         0.301806         2.233301
 H         4.247842         0.902533         0.758957
 H         4.126463        -2.201072        -1.449916
 H         1.517553        -2.034049        -0.711508
 H         1.900653        -2.136563         1.066338
 H         3.491423         0.898532        -2.548312
