19
Iteration:  2719charge 0 multiplicity 1
 C        -0.003004         0.416441        -0.187489
 C         1.329128        -0.159310         0.106544
 C         1.996533         0.642728         1.160465
 C         3.300467         0.557476         0.403783
 C         3.259263        -0.884229        -0.334500
 O         4.465114        -1.527471        -0.657911
 C         1.866114        -1.648216         0.017238
 C         2.505555         0.334007        -0.936112
 O         2.683919         1.049192        -2.066631
 H        -0.681494         0.327803         0.674971
 H         0.050195         1.409571        -0.461023
 H        -0.463409        -0.135788        -0.972731
 H         1.539350         1.754506         1.255067
 H         1.910031         0.292447         2.279400
 H         4.360231         0.991145         0.291508
 H         4.427619        -1.632740        -1.632906
 H         1.516122        -2.202391        -0.900773
 H         1.872006        -2.295206         0.873223
 H         2.775433         2.057546        -1.871077
