19
Iteration:  1011charge 0 multiplicity 1
 C        -0.028988         0.179113        -0.227566
 C         1.434675        -0.016047         0.141315
 C         2.121604         0.773121         1.269774
 C         3.383433         0.549531         0.425782
 C         3.244306        -0.844273        -0.337114
 O         4.390323        -1.512395        -0.768863
 C         1.974362        -1.429512         0.100140
 C         2.550931         0.351460        -0.945861
 O         2.440826         0.892828        -2.184481
 H        -0.668045        -0.008798         0.598463
 H         0.007439         1.289860        -0.476400
 H        -0.400111        -0.480452        -1.111545
 H         1.619223         1.810383         1.324775
 H         2.100175         0.270880         2.187665
 H         4.336268         1.105015         0.538849
 H         4.280757        -2.538187        -0.377414
 H         1.433936        -1.997247        -0.749062
 H         1.903217        -2.101607         1.026773
 H         2.659717         1.831330        -2.136592
