19
Iteration:   738charge 0 multiplicity 1
 C        -0.151918         0.229324        -0.034680
 C         1.328354        -0.061342         0.139062
 C         2.023991         0.773244         1.217631
 C         3.359287         0.568278         0.435265
 C         3.241424        -0.784985        -0.382105
 O         4.312450        -1.435600        -0.961847
 C         1.934041        -1.475227         0.129871
 C         2.537646         0.356685        -0.861288
 O         2.818711         0.814482        -2.194355
 H        -0.733382        -0.270127         0.680729
 H        -0.256033         1.330531         0.212395
 H        -0.497974         0.077998        -1.124472
 H         1.713509         1.884732         1.111366
 H         1.783410         0.563137         2.317474
 H         4.411892         0.931304         0.569295
 H         4.758804        -1.831717        -0.025292
 H         1.466909        -2.175480        -0.676231
 H         1.865828        -1.849786         1.122084
 H         2.853181         0.037794        -2.730997
