19
Iteration:  1099charge 0 multiplicity 1
 C        -0.185049         0.077057        -0.157615
 C         1.319185         0.046755         0.122973
 C         2.130424         0.742865         1.196818
 C         3.391832         0.573920         0.342402
 C         3.311764        -0.826040        -0.255356
 O         4.404407        -1.524892        -0.719860
 C         1.943446        -1.433114         0.126367
 C         2.545864         0.358172        -0.926557
 O         2.695467         0.974928        -2.160201
 H        -0.596755        -0.484235         0.610902
 H        -0.745825         1.049678        -0.127118
 H        -0.507727        -0.404087        -1.131352
 H         1.639846         1.802968         1.161752
 H         2.166685         0.267261         2.164551
 H         4.307969         1.278818         0.379093
 H         4.104811        -2.018549        -1.606941
 H         1.585134        -2.173880        -0.653075
 H         1.951733        -1.969504         1.117112
 H         1.756706         1.011250        -2.521530
