19
Iteration:  3161
 C        -0.056756         0.309526        -0.302900
 C         1.341363        -0.111013         0.062311
 C         2.001599         0.683542         1.149217
 C         3.316338         0.482348         0.398981
 C         3.306837        -0.872712        -0.374997
 O         4.397750        -1.601814        -0.744505
 C         1.930482        -1.481133         0.166788
 C         2.541326         0.312321        -0.891639
 O         2.659633         1.084435        -1.988295
 H        -0.921637        -0.034631         0.385228
 H         0.000308         1.414960        -0.439570
 H        -0.286213         0.039306        -1.293138
 H         1.786329         1.832997         1.063940
 H         1.950907         0.314230         2.196352
 H         4.115893         1.250781         0.384234
 H         4.241296        -2.224059        -1.494006
 H         1.475585        -2.261623        -0.440515
 H         2.080552        -1.893451         1.226764
 H         2.802938         1.986596        -1.658383
