19
Iteration:  1480
 C        -0.130414         0.194749        -0.238290
 C         1.336182        -0.071173         0.014876
 C         2.051336         0.689517         1.215757
 C         3.389489         0.501877         0.337758
 C         3.267557        -0.909294        -0.303370
 O         4.475115        -1.388501        -0.796371
 C         1.908202        -1.520354         0.195683
 C         2.572194         0.347218        -0.878993
 O         2.555505         1.008744        -2.083749
 H        -0.717194        -0.218839         0.484568
 H        -0.297568         1.280424        -0.325824
 H        -0.438910        -0.361378        -1.149123
 H         1.812160         1.732992         1.118923
 H         2.116132         0.400788         2.293367
 H         4.369488         0.989100         0.354243
 H         4.414817        -2.252729        -0.953910
 H         1.528089        -2.256466        -0.569992
 H         1.821407        -1.937238         1.240707
 H         2.903218         1.940434        -1.840142
