19
Iteration:  1655
 C        -0.043877         0.053608        -0.338942
 C         1.385453         0.031514         0.110992
 C         2.098081         0.703327         1.273688
 C         3.437026         0.540426         0.423749
 C         3.231856        -0.838872        -0.305801
 O         4.286641        -1.653081        -0.696615
 C         1.935014        -1.477577         0.008734
 C         2.599180         0.455400        -0.822304
 O         2.532317         1.084397        -2.122641
 H        -0.664304        -0.442209         0.515167
 H        -0.499647         1.095089        -0.398079
 H        -0.063194        -0.266880        -1.427078
 H         1.730337         1.701087         1.447010
 H         1.935719         0.122739         2.269838
 H         4.558510         0.688493         0.532113
 H         4.894199        -1.279502        -1.393019
 H         1.374140        -2.008868        -0.795532
 H         1.807057        -2.080052         0.921866
 H         2.841180         1.982407        -2.065361
