19
Iteration:   600
 C         0.038393         0.342837        -0.299651
 C         1.424555        -0.012253         0.148288
 C         2.107238         0.702356         1.281501
 C         3.410434         0.472502         0.420341
 C         3.210692        -0.858457        -0.341509
 O         4.302026        -1.529854        -0.818044
 C         1.947931        -1.477505         0.168738
 C         2.527667         0.349014        -0.899269
 O         2.459274         0.961799        -2.186220
 H        -0.741594         0.307094         0.602250
 H        -0.128631         1.306218        -0.769416
 H        -0.276374        -0.405372        -0.960966
 H         1.826232         1.807725         1.404317
 H         2.168236         0.233087         2.307224
 H         4.447899         0.923268         0.495397
 H         5.019137        -1.374514        -0.004128
 H         1.525627        -2.147970        -0.562021
 H         2.062890        -1.912011         1.250989
 H         2.637691         0.161034        -2.749111
