19
Iteration:  2131charge 0 multiplicity 1
 C        -0.101216         0.187821        -0.268076
 C         1.342712        -0.013017         0.128779
 C         2.090785         0.665439         1.282175
 C         3.317725         0.448434         0.464122
 C         3.141229        -0.884034        -0.302373
 O         4.283075        -1.435001        -0.959395
 C         1.901436        -1.508236         0.003289
 C         2.627751         0.394574        -0.802455
 O         2.730103         1.031098        -2.032761
 H        -0.803523         0.232876         0.473242
 H        -0.135216         1.259047        -0.725359
 H        -0.399551        -0.572263        -0.963399
 H         1.851991         1.752527         1.368673
 H         2.103283         0.291767         2.285741
 H         4.359663         0.785106         0.644498
 H         5.079089        -1.581798        -0.343287
 H         1.243423        -1.855481        -0.809472
 H         1.635731        -2.179181         0.812994
 H         3.736882         0.871365        -2.243303
