19
Iteration:  3548charge 0 multiplicity 1
 C        -0.050981         0.276090        -0.249109
 C         1.385778        -0.021722         0.040944
 C         2.168972         0.637737         1.313655
 C         3.317313         0.505855         0.328176
 C         3.216357        -0.868355        -0.363597
 O         4.418889        -1.655117        -0.516241
 C         1.926929        -1.426442        -0.090622
 C         2.518447         0.362038        -0.927542
 O         2.554227         1.095787        -2.104526
 H        -0.817504        -0.108388         0.579493
 H        -0.431537         1.359458        -0.137393
 H        -0.394385        -0.131840        -1.345988
 H         2.036657         1.637770         1.488910
 H         2.315157         0.195199         2.330421
 H         4.332788         0.848163         0.422323
 H         4.207548        -2.394698        -1.189507
 H         1.426999        -1.850536        -1.014541
 H         1.709072        -2.127401         0.682753
 H         2.987782         1.967381        -1.806748
