19
Iteration:  1096
 C        -0.199043         0.082234        -0.159881
 C         1.316651         0.006121         0.122571
 C         2.126660         0.769118         1.197552
 C         3.408879         0.591867         0.329851
 C         3.306924        -0.812245        -0.267608
 O         4.398450        -1.535630        -0.729226
 C         1.930362        -1.456530         0.130140
 C         2.573917         0.353471        -0.942795
 O         2.692843         0.993534        -2.142183
 H        -0.594046        -0.529080         0.662130
 H        -0.758312         1.036977        -0.095915
 H        -0.537355        -0.385497        -1.125589
 H         1.667859         1.827417         1.195263
 H         2.103524         0.250930         2.194602
 H         4.286966         1.221884         0.376589
 H         4.179315        -2.062273        -1.392882
 H         1.597810        -2.131776        -0.615491
 H         1.974817        -1.916349         1.109953
 H         1.796201         0.989069        -2.585458
