19
Iteration:  3215charge 0 multiplicity 1
 C        -0.097215         0.172569        -0.198997
 C         1.372279         0.114830         0.037261
 C         2.036680         0.585272         1.279161
 C         3.382531         0.442420         0.474579
 C         3.211408        -0.788867        -0.373364
 O         4.383960        -1.466284        -0.698490
 C         1.778143        -1.377446         0.012146
 C         2.595397         0.523444        -0.834238
 O         2.765488         0.769741        -2.198251
 H        -0.578435        -0.525901         0.391897
 H        -0.513157         1.102884         0.101360
 H        -0.404594        -0.133483        -1.124781
 H         1.751903         1.611154         1.631908
 H         1.884502         0.089916         2.303085
 H         4.474540         0.563997         0.751317
 H         4.549922        -1.580670        -1.679444
 H         1.300770        -1.896566        -0.781314
 H         1.710876        -1.877202         1.015394
 H         2.823315         1.752145        -2.325842
