19
Iteration:   282charge 0 multiplicity 1
 C         0.018637         0.235409        -0.197848
 C         1.426204        -0.019458         0.113270
 C         2.167094         0.799766         1.222462
 C         3.357133         0.589929         0.402524
 C         3.186000        -0.876629        -0.341413
 O         4.271335        -1.575886        -0.812353
 C         1.873540        -1.494330         0.140298
 C         2.601603         0.382208        -0.888039
 O         2.514601         0.928215        -2.191958
 H        -0.533473        -0.630355         0.314269
 H        -0.386438         1.148201         0.279418
 H        -0.174341         0.251586        -1.220054
 H         1.781138         1.896774         1.209317
 H         2.290859         0.459387         2.279721
 H         4.442884         0.911549         0.438944
 H         4.778545        -2.007808        -0.041563
 H         1.206585        -1.981212        -0.517282
 H         1.795237        -2.007021         1.201363
 H         3.386388         0.948673        -2.604936
