19
Iteration:  4064charge 0 multiplicity 1
 C        -0.158758         0.345636        -0.125837
 C         1.315493        -0.107336        -0.043331
 C         2.086602         0.609903         1.186937
 C         3.337446         0.511265         0.394913
 C         3.228914        -0.862557        -0.258557
 O         4.412098        -1.398862        -0.706273
 C         1.872343        -1.493884        -0.029580
 C         2.573113         0.427620        -0.829934
 O         2.779327         0.815679        -2.089984
 H        -0.749535         0.024820         0.814858
 H        -0.363817         1.443490        -0.131449
 H        -0.664828         0.074628        -1.057393
 H         1.757620         1.586857         1.346072
 H         1.933202         0.170470         2.164380
 H         4.363744         0.857088         0.494428
 H         4.179350        -1.764659        -1.563062
 H         1.564932        -1.970720        -0.970766
 H         1.541064        -2.028507         0.890280
 H         3.058395         1.792016        -2.084090
