19
Iteration:  2688charge 0 multiplicity 1
 C        -0.184306         0.310068        -0.252027
 C         1.332625         0.007167         0.007339
 C         2.085307         0.490978         1.277318
 C         3.375030         0.434077         0.472203
 C         3.268875        -0.797085        -0.368157
 O         4.462356        -1.548133        -0.619950
 C         1.825295        -1.422123         0.061970
 C         2.623376         0.405559        -0.903747
 O         2.608248         1.040267        -2.161459
 H        -0.666522        -0.009854         0.756729
 H        -0.503223         1.333598        -0.543005
 H        -0.530991        -0.358463        -1.011419
 H         1.888179         1.580192         1.430939
 H         2.076504        -0.203167         2.145218
 H         4.444967         0.786327         0.614486
 H         4.459903        -1.675025        -1.646204
 H         1.476146        -2.180528        -0.659392
 H         1.771740        -1.867338         1.041712
 H         3.274635         1.608107        -2.464934
