19
Iteration:  1280
 C        -0.147700         0.151843        -0.152578
 C         1.336968        -0.043601         0.034725
 C         2.021705         0.769063         1.196565
 C         3.281333         0.573046         0.355384
 C         3.271845        -0.913173        -0.354697
 O         4.469658        -1.436337        -0.836260
 C         1.981378        -1.523346         0.224713
 C         2.580340         0.300169        -0.933149
 O         2.612445         0.988547        -2.158241
 H        -0.619602        -0.516041         0.600429
 H        -0.429474         1.159831         0.024582
 H        -0.463320        -0.011552        -1.144204
 H         1.833051         1.796584         1.150543
 H         2.146045         0.506664         2.297348
 H         4.363896         0.980398         0.628749
 H         4.506066        -2.296210        -0.337106
 H         1.607012        -2.366340        -0.372947
 H         2.157733        -1.718155         1.340384
 H         2.411356         1.891134        -2.047527
