19
Iteration:  3958charge 0 multiplicity 1
 C        -0.119610         0.253864        -0.385786
 C         1.372554        -0.000049         0.026540
 C         2.092942         0.696097         1.255844
 C         3.388992         0.470472         0.407660
 C         3.163632        -0.878627        -0.335255
 O         4.322795        -1.560856        -0.733997
 C         1.976152        -1.477944         0.158033
 C         2.636572         0.372610        -0.859848
 O         2.651286         1.031573        -2.058052
 H        -0.664476        -0.336345         0.276996
 H        -0.345457         1.324149        -0.253715
 H        -0.453096        -0.176506        -1.350296
 H         1.808330         1.875043         1.237659
 H         1.857041        -0.008462         2.145088
 H         4.459015         0.680697         0.610745
 H         4.001800        -2.097325        -1.375119
 H         1.526093        -2.236493        -0.491191
 H         2.056957        -1.759658         1.220655
 H         2.772432         1.995991        -1.857590
