19
Iteration:  1051
 C        -0.159255         0.095012        -0.089118
 C         1.333531        -0.023141         0.007365
 C         2.105142         0.772711         1.152558
 C         3.402763         0.495908         0.324112
 C         3.293983        -0.869980        -0.381545
 O         4.437921        -1.549100        -0.677927
 C         1.973696        -1.452901         0.220890
 C         2.530874         0.254135        -1.026528
 O         2.525687         1.198379        -2.098406
 H        -0.811214        -0.379311         0.700197
 H        -0.424580         1.141738        -0.087105
 H        -0.510223        -0.181427        -1.095230
 H         2.006928         1.889278         1.039939
 H         1.957559         0.353949         2.218657
 H         4.291026         0.942170         0.156483
 H         4.197010        -2.346175        -0.420458
 H         1.579099        -2.098111        -0.510101
 H         1.878872        -1.904287         1.196286
 H         3.383821         0.971203        -2.576430
