19
Iteration:  3426
 C        -0.226855         0.301022        -0.164242
 C         1.323282         0.052195         0.001152
 C         2.052141         0.619616         1.281278
 C         3.366462         0.530673         0.539502
 C         3.287325        -0.824377        -0.303033
 O         4.375580        -1.570285        -0.798371
 C         1.882775        -1.410354        -0.022971
 C         2.699895         0.429932        -0.824543
 O         2.733800         0.793552        -2.159923
 H        -0.819198        -0.399674         0.512382
 H        -0.494763         1.347687         0.102328
 H        -0.668058         0.030681        -1.142245
 H         1.630369         1.565221         1.639134
 H         1.793092         0.013389         2.203337
 H         4.387102         0.905859         0.590642
 H         4.519405        -1.216136        -1.684408
 H         1.572110        -1.989048        -0.926868
 H         1.621893        -1.913271         0.909219
 H         2.832944         1.718827        -2.260759
