19
Iteration:   140
 C        -0.148416         0.167786        -0.032611
 C         1.308512         0.013899         0.127953
 C         2.127860         0.821994         1.162633
 C         3.318393         0.604027         0.392594
 C         3.157830        -0.788568        -0.355344
 O         4.254943        -1.497619        -0.912815
 C         1.933515        -1.485751         0.072774
 C         2.565025         0.399748        -0.856756
 O         2.836851         0.827833        -2.157199
 H        -0.688742        -0.019246         1.045716
 H        -0.408869         1.228084        -0.305067
 H        -0.600162        -0.501395        -0.750846
 H         1.948438         1.961256         1.136239
 H         2.026256         0.407423         2.262733
 H         4.324760         1.002803         0.523586
 H         4.603917        -2.122507        -0.112905
 H         1.466747        -2.079876        -0.667196
 H         1.970091        -2.095436         1.035961
 H         3.469035         0.174577        -2.500935
