19
Iteration:  4326
 C        -0.145704         0.161021        -0.343752
 C         1.325851         0.009020        -0.020001
 C         2.052186         0.721316         1.295802
 C         3.381268         0.510927         0.512710
 C         3.240802        -0.830843        -0.272468
 O         4.239764        -1.589070        -0.927918
 C         1.955423        -1.390262         0.133625
 C         2.638863         0.385725        -0.769911
 O         2.787060         0.864044        -2.080609
 H        -0.778398        -0.614127         0.350342
 H        -0.427459         1.188930         0.140693
 H        -0.303537         0.181081        -1.454120
 H         1.832197         1.865273         1.590244
 H         1.798359         0.169170         2.229870
 H         4.323315         1.072995         0.707170
 H         4.691119        -1.036855        -1.549479
 H         1.258688        -1.946630        -0.487095
 H         1.820116        -1.821232         1.161219
 H         2.712324         1.754756        -2.292624
