19
Iteration:  1678charge 0 multiplicity 1
 C        -0.075797         0.165614        -0.380585
 C         1.330086         0.012517         0.074805
 C         2.157442         0.583183         1.332084
 C         3.345273         0.544453         0.442903
 C         3.237180        -0.872275        -0.336574
 O         4.401867        -1.501340        -0.729360
 C         1.877993        -1.422633         0.067049
 C         2.601181         0.395779        -0.821640
 O         2.590051         0.987177        -2.108244
 H        -0.699374        -0.075949         0.507355
 H        -0.351046         1.294468        -0.585677
 H        -0.252150        -0.330816        -1.403169
 H         2.044749         1.646138         1.559707
 H         2.181484         0.041186         2.314000
 H         4.265218         0.997764         0.630589
 H         4.342869        -1.984751        -1.603143
 H         1.421897        -2.022933        -0.768358
 H         1.896239        -2.117844         0.900222
 H         2.336951         1.928712        -1.986136
