19
Iteration:  2065charge 0 multiplicity 1
 C        -0.099039         0.355764        -0.240524
 C         1.322712        -0.129380         0.071087
 C         2.138476         0.542063         1.331403
 C         3.288877         0.491385         0.390065
 C         3.204516        -0.862577        -0.370161
 O         4.422354        -1.454651        -0.667060
 C         1.880674        -1.549124         0.038407
 C         2.524828         0.412751        -0.882059
 O         2.696536         1.089767        -2.096071
 H        -0.785376         0.015079         0.420229
 H        -0.124303         1.534186        -0.185653
 H        -0.418748         0.058580        -1.212406
 H         1.830893         1.565855         1.590470
 H         2.193003         0.069391         2.293325
 H         4.173924         1.022251         0.434203
 H         4.553189        -1.683886        -1.723938
 H         1.358211        -2.156208        -0.756561
 H         2.037087        -2.280271         0.868589
 H         2.883438         0.598316        -2.870453
