19
Iteration:    58charge 0 multiplicity 1
 C        -0.023859         0.281344        -0.347241
 C         1.408579        -0.008128         0.082071
 C         2.202229         0.793065         1.165508
 C         3.428102         0.605538         0.296904
 C         3.325252        -0.923613        -0.223311
 O         4.404198        -1.652714        -0.704610
 C         1.907766        -1.457172         0.189328
 C         2.518713         0.287555        -0.901520
 O         2.342367         0.963948        -2.110662
 H        -0.651564        -0.487783        -0.102305
 H        -0.402396         1.214394         0.087344
 H        -0.020193         0.423285        -1.532370
 H         1.735217         1.840015         1.242243
 H         2.260216         0.297939         2.168655
 H         4.485554         0.980861         0.202869
 H         4.943345        -1.973757         0.172691
 H         1.611273        -2.010246        -0.761711
 H         1.647659        -1.998368         1.083701
 H         1.975843         1.812219        -1.964344
