19
Iteration:  1178
 C        -0.097926         0.315124        -0.248426
 C         1.358181        -0.117208         0.092247
 C         2.102610         0.692585         1.203563
 C         3.307486         0.630522         0.347977
 C         3.312627        -0.840681        -0.282828
 O         4.431931        -1.484667        -0.788642
 C         2.032103        -1.561804         0.237987
 C         2.566423         0.294703        -0.894921
 O         2.417268         0.894008        -2.120583
 H        -0.864483         0.235695         0.549143
 H        -0.091009         1.332189        -0.570649
 H        -0.440423        -0.312192        -1.024848
 H         1.793003         1.782986         1.255091
 H         1.921766         0.247334         2.182901
 H         4.124480         1.220920         0.487859
 H         4.776085        -0.855083        -1.294063
 H         1.694833        -2.325740        -0.547520
 H         1.957861        -2.087047         1.228798
 H         3.291460         1.272517        -2.488625
