19
Iteration:  4592charge 0 multiplicity 1
 C        -0.119999         0.315430        -0.212887
 C         1.320418        -0.059495         0.035949
 C         2.078392         0.623506         1.218206
 C         3.337690         0.568281         0.398851
 C         3.279748        -0.861774        -0.304818
 O         4.358032        -1.662112        -0.708783
 C         1.878006        -1.513733        -0.038643
 C         2.529767         0.365969        -0.881515
 O         2.708392         1.168865        -2.054788
 H        -0.684613        -0.267657         0.574401
 H        -0.320638         1.373912        -0.305216
 H        -0.465110        -0.179044        -1.118359
 H         1.757787         1.663820         1.278141
 H         2.041281         0.027294         2.144072
 H         4.330187         1.027124         0.515547
 H         5.141091        -1.234313        -0.149366
 H         1.554594        -2.120421        -0.864969
 H         1.641422        -2.035583         0.902156
 H         3.025995         0.412953        -2.645040
