19
Iteration:  1458
 C        -0.137654         0.053546        -0.210708
 C         1.377195        -0.011480         0.111374
 C         2.097524         0.741434         1.217633
 C         3.346780         0.563979         0.378830
 C         3.283882        -0.825207        -0.388828
 O         4.394343        -1.620436        -0.618736
 C         2.009146        -1.492287         0.095602
 C         2.553980         0.404163        -0.944281
 O         2.500025         1.107972        -2.139975
 H        -0.779666        -0.438756         0.402291
 H        -0.409603         1.118466        -0.275816
 H        -0.293794        -0.445205        -1.200171
 H         1.994493         1.814434         1.208230
 H         2.013909         0.344633         2.257161
 H         4.316880         0.945606         0.580584
 H         4.371798        -1.869938        -1.683178
 H         1.623787        -2.178939        -0.705029
 H         2.081770        -2.033973         1.087147
 H         3.130583         1.764867        -1.947014
