19
Iteration:  2318
 C        -0.075666         0.160305        -0.266785
 C         1.360230         0.009679         0.040112
 C         2.054157         0.586944         1.295726
 C         3.369942         0.418639         0.516496
 C         3.208376        -0.796181        -0.366225
 O         4.280396        -1.482585        -0.797605
 C         1.854984        -1.444300         0.048275
 C         2.632751         0.463561        -0.827027
 O         2.800836         0.956814        -2.113319
 H        -0.707318         0.271898         0.610529
 H        -0.330163         1.113499        -1.031612
 H        -0.409838        -0.732284        -0.822170
 H         1.640020         1.571856         1.589768
 H         1.912239        -0.098393         2.177464
 H         4.355595         0.700166         0.976437
 H         4.811697        -0.836376        -1.471172
 H         1.360680        -1.987388        -0.739084
 H         1.769430        -2.084942         0.939820
 H         2.184043         1.737440        -2.245865
