19
Iteration:  4032
 C        -0.102945         0.350366        -0.232380
 C         1.326423        -0.051013         0.052022
 C         2.042431         0.610502         1.293833
 C         3.293595         0.421988         0.374767
 C         3.202170        -0.884072        -0.386049
 O         4.462540        -1.528302        -0.630936
 C         1.934472        -1.465246         0.105255
 C         2.603644         0.393807        -0.893478
 O         2.664960         1.035218        -2.195237
 H        -0.907294         0.072238         0.559403
 H         0.078614         1.443541        -0.677839
 H        -0.595667        -0.387229        -0.928021
 H         1.772171         1.614957         1.478776
 H         1.928236         0.039903         2.195074
 H         4.358517         0.565152         0.619585
 H         4.502101        -1.865397        -1.572330
 H         1.349830        -2.096969        -0.585356
 H         1.835787        -1.923967         1.122582
 H         2.780650         1.940305        -2.064445
