19
Iteration:  4617charge 0 multiplicity 1
 C        -0.096983         0.290300        -0.326129
 C         1.341283        -0.041358         0.050968
 C         1.979006         0.619365         1.272957
 C         3.353223         0.489375         0.518847
 C         3.269072        -0.845535        -0.345874
 O         4.280797        -1.626107        -0.736569
 C         1.957153        -1.480093         0.048904
 C         2.645366         0.367325        -0.854619
 O         2.720462         1.159950        -2.085901
 H        -0.680759         0.092542         0.686728
 H        -0.184824         1.314114        -0.826826
 H        -0.612170        -0.459459        -0.984942
 H         1.803727         1.744699         1.291069
 H         1.840160         0.110257         2.173287
 H         4.367934         0.752101         0.763356
 H         4.866280        -1.025246        -1.310139
 H         1.375374        -2.190115        -0.618494
 H         2.065909        -1.994428         1.011448
 H         2.497662         0.355992        -2.705542
