19
Iteration:  2453
 C        -0.040193         0.198137        -0.364170
 C         1.389256        -0.029560         0.052774
 C         1.962920         0.665076         1.309908
 C         3.302448         0.489601         0.607150
 C         3.233484        -0.843687        -0.332560
 O         4.342894        -1.611092        -0.850668
 C         1.946282        -1.442397         0.076213
 C         2.756093         0.479040        -0.810980
 O         2.574409         1.020559        -2.108192
 H        -0.655467        -0.507732         0.300525
 H        -0.404025         1.245239        -0.055947
 H        -0.345488        -0.071132        -1.420049
 H         1.637244         1.735871         1.287359
 H         1.733535         0.099716         2.165872
 H         4.290247         0.999854         0.956241
 H         4.296556        -1.768926        -1.939297
 H         1.381177        -2.110203        -0.536575
 H         2.061532        -1.864949         1.051524
 H         3.459178         1.524817        -2.229569
