19
Iteration:  1815
 C        -0.151810         0.199268        -0.266561
 C         1.326055        -0.082404        -0.013450
 C         2.032587         0.743510         1.139501
 C         3.317174         0.502756         0.432980
 C         3.315967        -0.897118        -0.268612
 O         4.348243        -1.704360        -0.782750
 C         2.008300        -1.549424         0.126206
 C         2.596731         0.376479        -0.906478
 O         2.689019         1.193751        -1.979841
 H        -0.782048        -0.526413         0.351258
 H        -0.475090         1.260793        -0.019621
 H        -0.397717         0.145686        -1.298193
 H         1.739787         1.804964         0.907727
 H         1.953248         0.695107         2.196548
 H         4.322616         1.149146         0.695175
 H         4.448061        -1.628088        -1.659152
 H         1.535863        -2.249347        -0.524178
 H         1.980070        -2.060664         1.069362
 H         2.480171         2.081713        -1.742050
