19
Iteration:  3223charge 0 multiplicity 1
 C        -0.133525         0.204992        -0.161722
 C         1.319430         0.114194        -0.012621
 C         2.094776         0.617701         1.346711
 C         3.373760         0.475081         0.486423
 C         3.187342        -0.816927        -0.317740
 O         4.360437        -1.500003        -0.678395
 C         1.854187        -1.386375        -0.067877
 C         2.627853         0.516262        -0.865857
 O         2.753995         0.760013        -2.191705
 H        -0.589377        -0.530622         0.511458
 H        -0.703982         1.109923         0.033314
 H        -0.360000        -0.210105        -1.244951
 H         1.908357         1.617746         1.585858
 H         1.984889        -0.206336         2.119965
 H         4.355343         0.725678         0.853916
 H         4.512443        -1.150855        -1.657991
 H         1.378944        -1.964257        -0.858844
 H         1.736938        -1.883743         0.880153
 H         2.800436         1.660437        -2.490492
