19
Iteration:  1212charge 0 multiplicity 1
 C        -0.054378         0.046601        -0.211361
 C         1.395274         0.032430         0.102503
 C         2.152486         0.737857         1.209100
 C         3.359213         0.544348         0.338068
 C         3.261180        -0.851527        -0.377863
 O         4.447003        -1.612942        -0.584321
 C         1.944047        -1.443202         0.137606
 C         2.605482         0.418018        -0.961429
 O         2.338098         1.044998        -2.142694
 H        -0.595220        -0.301445         0.721014
 H        -0.406715         0.956188        -0.562075
 H        -0.176411        -0.583291        -1.006186
 H         1.960159         1.821788         1.114305
 H         1.898524         0.338943         2.230395
 H         4.188729         1.143301         0.531836
 H         4.789767        -1.681313        -1.539263
 H         1.459931        -2.072295        -0.661177
 H         1.936867        -1.825310         1.209165
 H         3.150680         1.505012        -2.542883
