19
Iteration:  1336
 C        -0.125584         0.174287        -0.223500
 C         1.349772         0.013958         0.114859
 C         2.022063         0.654953         1.368157
 C         3.434087         0.688878         0.490532
 C         3.227914        -0.758902        -0.330081
 O         4.323759        -1.416466        -0.897130
 C         1.958675        -1.471877         0.049293
 C         2.584909         0.423995        -0.787809
 O         2.636416         0.614410        -2.212533
 H        -0.763366        -0.038600         0.582198
 H        -0.163198         1.241969        -0.442651
 H        -0.396734        -0.534717        -1.031604
 H         1.733118         1.605513         1.661739
 H         1.999504        -0.032871         2.294678
 H         4.479068         1.141552         0.691815
 H         5.009674        -0.573614        -1.158879
 H         1.529653        -2.020905        -0.805346
 H         1.906414        -2.228769         0.924967
 H         2.613004         1.589149        -2.448468
