19
Iteration:   264
 C        -0.048222         0.308684        -0.317244
 C         1.398941         0.022349         0.129640
 C         2.182296         0.796627         1.291710
 C         3.441528         0.587217         0.343894
 C         3.227684        -0.915789        -0.324111
 O         4.346319        -1.650342        -0.763322
 C         1.946373        -1.484457         0.165548
 C         2.585307         0.315941        -0.905017
 O         2.341706         0.996350        -2.136574
 H        -0.874520        -0.275883         0.215037
 H        -0.246796         1.380701        -0.267418
 H        -0.067407         0.083883        -1.420079
 H         1.987554         1.852094         1.433837
 H         2.138118         0.317564         2.376239
 H         4.454063         0.902216         0.422375
 H         4.675043        -2.113031         0.031356
 H         1.702648        -2.126236        -0.738910
 H         1.983608        -2.049843         1.070077
 H         3.153611         0.955660        -2.644327
