19
Iteration:  1143charge 0 multiplicity 1
 C        -0.096517         0.285719        -0.199476
 C         1.359280        -0.057403         0.088749
 C         2.080450         0.708388         1.270331
 C         3.312358         0.660865         0.460617
 C         3.228376        -0.891027        -0.342489
 O         4.391363        -1.404777        -0.837499
 C         2.032769        -1.541891         0.177750
 C         2.580269         0.352341        -0.839714
 O         2.525741         0.707398        -2.190755
 H        -0.810885         0.038352         0.508480
 H        -0.252685         1.321547        -0.601954
 H        -0.311132        -0.292011        -1.161470
 H         1.841728         1.893248         1.291948
 H         2.039053         0.222467         2.246484
 H         4.356958         1.016618         0.667254
 H         4.808318        -0.711774        -1.316852
 H         1.546792        -2.118258        -0.660685
 H         2.029254        -2.070958         1.143638
 H         2.845439         1.670022        -2.357939
