19
Iteration:  3739
 C        -0.166901         0.299303        -0.239905
 C         1.302878         0.036062        -0.011922
 C         2.118362         0.606608         1.291337
 C         3.396772         0.386210         0.392674
 C         3.238669        -0.897260        -0.398181
 O         4.464340        -1.518711        -0.568405
 C         1.900047        -1.462747         0.036786
 C         2.590801         0.412284        -0.947761
 O         2.608850         1.061028        -2.150510
 H        -0.726515        -0.144255         0.719527
 H        -0.611987         1.301270        -0.063749
 H        -0.457429         0.087651        -1.227992
 H         1.959514         1.595584         1.468990
 H         2.013872        -0.037935         2.119103
 H         4.426393         0.625050         0.554994
 H         4.201330        -2.302196        -1.141457
 H         1.466915        -2.110304        -0.733783
 H         1.784725        -2.121115         0.941627
 H         2.944933         1.897643        -1.917096
