19
Iteration:  4903
 C        -0.118275         0.348214        -0.089278
 C         1.271595        -0.065017        -0.022479
 C         1.998289         0.567555         1.090404
 C         3.328073         0.448271         0.413330
 C         3.239947        -0.890669        -0.343659
 O         4.438109        -1.455294        -0.640953
 C         1.828320        -1.435519         0.026481
 C         2.585827         0.335419        -0.937529
 O         2.873090         1.015299        -2.096933
 H        -0.731387        -0.151001         0.688375
 H        -0.241563         1.385316        -0.028455
 H        -0.591281         0.015614        -0.920998
 H         1.649914         1.547763         1.597560
 H         1.833783        -0.037951         2.051409
 H         4.342401         0.828126         0.391146
 H         4.134155        -2.082173        -1.325249
 H         1.425276        -2.187717        -0.717622
 H         1.639459        -1.950060         1.027194
 H         2.704484         2.003143        -1.911755
