19
Iteration:  1402charge 0 multiplicity 1
 C        -0.145664         0.096775        -0.183695
 C         1.348334        -0.052803         0.084672
 C         2.096642         0.777435         1.191270
 C         3.361324         0.470087         0.348628
 C         3.221182        -0.837562        -0.394522
 O         4.454541        -1.477968        -0.755097
 C         1.983908        -1.504955         0.142406
 C         2.517797         0.353053        -0.900234
 O         2.593459         1.049944        -2.153574
 H        -0.705636        -0.286290         0.600800
 H        -0.352606         1.161827        -0.123677
 H        -0.587706        -0.298598        -1.153396
 H         1.885752         1.810002         1.170045
 H         2.008345         0.394077         2.260742
 H         4.269436         0.945194         0.250987
 H         4.746592        -2.294515        -0.043130
 H         1.490004        -2.194150        -0.572439
 H         2.017913        -1.973219         1.186433
 H         2.595015         1.990854        -1.816210
