19
Iteration:  2201
 C        -0.045907         0.185798        -0.246504
 C         1.425134        -0.055803         0.051955
 C         2.135913         0.684262         1.222844
 C         3.390716         0.521406         0.400134
 C         3.208386        -0.907204        -0.283693
 O         4.295339        -1.659457        -0.661627
 C         1.871599        -1.466760        -0.159513
 C         2.616920         0.396658        -0.845004
 O         2.618707         1.159858        -2.029797
 H        -0.774037        -0.514602         0.283104
 H        -0.339645         1.119501        -0.013407
 H        -0.231363        -0.003211        -1.326563
 H         1.752408         1.770610         1.279545
 H         2.052264         0.257128         2.267730
 H         4.318385         0.996644         0.764092
 H         5.240067        -1.179866        -0.487002
 H         1.514236        -1.832218        -1.121950
 H         1.670561        -2.286339         0.587751
 H         1.678062         1.392504        -2.154365
