19
Iteration:  2108
 C        -0.156854         0.204063        -0.233107
 C         1.345732         0.043541         0.002501
 C         2.045345         0.679322         1.290413
 C         3.409998         0.479976         0.653635
 C         3.268828        -0.838924        -0.304732
 O         4.374156        -1.467498        -0.972496
 C         1.885557        -1.465240        -0.078500
 C         2.665882         0.419279        -0.736204
 O         2.624463         0.942316        -2.079815
 H        -0.650846         0.254025         0.670927
 H        -0.301628         1.304189        -0.636223
 H        -0.606723        -0.553176        -0.841173
 H         1.756338         1.712902         1.472524
 H         1.844113         0.170629         2.231298
 H         4.270154         1.032182         0.860458
 H         4.334285        -2.423702        -0.738433
 H         1.507523        -2.022082        -0.984073
 H         1.537486        -2.070622         0.760597
 H         3.495446         0.771700        -2.395810
