19
Iteration:  1920charge 0 multiplicity 1
 C        -0.097865         0.383024        -0.182355
 C         1.336214        -0.109306         0.010572
 C         1.964815         0.656028         1.194912
 C         3.310435         0.449918         0.471901
 C         3.284285        -0.888475        -0.307634
 O         4.456380        -1.464914        -0.746974
 C         1.939383        -1.582355         0.002555
 C         2.642136         0.349132        -0.842252
 O         2.565549         1.025650        -2.036658
 H        -0.698446         0.275587         0.715923
 H        -0.233434         1.492884        -0.395865
 H        -0.548810        -0.303056        -0.941036
 H         1.709679         1.760269         1.003646
 H         1.783753         0.294022         2.298062
 H         4.203833         1.015259         0.888208
 H         4.729620        -1.316338        -1.802597
 H         1.672149        -1.916117        -1.092772
 H         1.831197        -2.325198         0.877121
 H         3.380491         0.981361        -2.480454
