19
Iteration:  3795charge 0 multiplicity 1
 C        -0.058339         0.285607        -0.349908
 C         1.329058        -0.022551         0.020529
 C         2.081060         0.719621         1.177625
 C         3.382993         0.425975         0.427154
 C         3.281663        -0.892244        -0.344550
 O         4.374850        -1.717379        -0.679910
 C         1.973084        -1.474678         0.118037
 C         2.633103         0.369576        -0.883154
 O         2.476715         1.151540        -1.994868
 H        -0.952817        -0.216131         0.269004
 H        -0.032453         1.352205        -0.467467
 H        -0.397591        -0.210327        -1.256587
 H         1.883215         1.741698         1.054365
 H         1.942416         0.357104         2.175246
 H         4.279277         0.992765         0.610300
 H         4.261753        -1.853383        -1.567582
 H         1.448339        -2.141340        -0.578251
 H         2.069255        -1.789329         1.177282
 H         3.134680         1.907372        -1.905614
