19
Iteration:  3178
 C        -0.185596         0.338296        -0.315738
 C         1.265479        -0.080203         0.072683
 C         2.060903         0.748822         1.201068
 C         3.362911         0.534691         0.365513
 C         3.233083        -0.892366        -0.266999
 O         4.411973        -1.496951        -0.804778
 C         1.994774        -1.600044         0.153183
 C         2.511478         0.294115        -0.854837
 O         2.779333         1.013412        -2.011359
 H        -0.868224        -0.129200         0.390215
 H        -0.320314         1.410043        -0.116619
 H        -0.413232         0.184719        -1.454283
 H         1.763511         1.723231         0.993148
 H         2.074310         0.278726         2.213721
 H         4.341492         0.943527         0.318883
 H         3.971328        -2.299006        -1.326261
 H         1.685910        -2.197614        -0.746803
 H         1.851372        -2.194870         1.016750
 H         2.680320         1.924957        -1.788019
