19
Iteration:  4591charge 0 multiplicity 1
 C        -0.120778         0.315949        -0.211679
 C         1.312053        -0.058894         0.030820
 C         2.077436         0.625440         1.219934
 C         3.342043         0.574162         0.390253
 C         3.280850        -0.869215        -0.307149
 O         4.362500        -1.657824        -0.705890
 C         1.871329        -1.517525        -0.042498
 C         2.530401         0.365921        -0.875425
 O         2.707967         1.169955        -2.052303
 H        -0.659999        -0.237279         0.555727
 H        -0.373860         1.345651        -0.267900
 H        -0.457064        -0.165329        -1.125676
 H         1.772215         1.647246         1.254511
 H         2.060857         0.003266         2.174539
 H         4.346327         1.031645         0.507912
 H         5.152130        -1.271182        -0.123726
 H         1.529586        -2.097837        -0.864967
 H         1.672834        -2.033487         0.918842
 H         3.042156         0.387974        -2.653533
