19
Iteration:  1825charge 0 multiplicity 1
 C        -0.122845         0.212252        -0.292552
 C         1.313027        -0.103556         0.036691
 C         2.016741         0.770027         1.122796
 C         3.336634         0.470495         0.438996
 C         3.280840        -0.878701        -0.353244
 O         4.427462        -1.641947        -0.779596
 C         1.959634        -1.507705         0.174153
 C         2.588756         0.280810        -0.882050
 O         2.656448         1.174506        -1.960965
 H        -0.874108        -0.389768         0.210795
 H        -0.269364         1.279589         0.134669
 H        -0.322795         0.151237        -1.340466
 H         1.701633         1.815321         0.867662
 H         1.808218         0.475409         2.087033
 H         4.397708         0.992715         0.403557
 H         4.229164        -1.796559        -1.635004
 H         1.613574        -1.971060        -0.686724
 H         1.890163        -2.014945         1.085546
 H         2.750846         2.034920        -1.514225
