19
Iteration:  4446
 C        -0.171041         0.311016        -0.244328
 C         1.349812        -0.094705        -0.006899
 C         2.096639         0.677294         1.222353
 C         3.371186         0.500532         0.414050
 C         3.288282        -0.870658        -0.286722
 O         4.433781        -1.585642        -0.627766
 C         1.878805        -1.507340        -0.017319
 C         2.618047         0.332641        -0.857208
 O         2.545073         1.129956        -2.040671
 H        -0.685641         0.419681         0.709252
 H        -0.288486         1.271899        -0.824667
 H        -0.571061        -0.503345        -0.862978
 H         1.884550         1.702722         1.127725
 H         2.186469         0.268473         2.224372
 H         4.346855         0.913788         0.609104
 H         4.482417        -1.766076        -1.583989
 H         1.523904        -1.908865        -0.948788
 H         1.641503        -2.110603         0.870174
 H         3.369727         0.849543        -2.603594
