19
Iteration:  2143charge 0 multiplicity 1
 C        -0.113319         0.235893        -0.290127
 C         1.315784        -0.061543         0.061429
 C         2.121415         0.641678         1.281858
 C         3.369408         0.449905         0.445788
 C         3.188368        -0.918750        -0.332991
 O         4.295824        -1.461872        -0.922343
 C         1.813400        -1.563638         0.119314
 C         2.540571         0.398178        -0.839419
 O         2.766830         1.114775        -2.023452
 H        -0.722220         0.161135         0.557230
 H        -0.149756         1.296270        -0.680291
 H        -0.504722        -0.320843        -1.115247
 H         1.837271         1.721535         1.418785
 H         2.065280         0.026922         2.163358
 H         4.395890         0.973021         0.621648
 H         4.981567        -1.055928        -0.503003
 H         1.509799        -2.214399        -0.696778
 H         1.866321        -2.033002         1.113851
 H         3.617411         0.849496        -2.404852
