19
Iteration:  2402
 C        -0.146143         0.268373        -0.285350
 C         1.348158        -0.007979         0.059893
 C         2.097281         0.629302         1.302413
 C         3.365606         0.409215         0.372119
 C         3.162492        -0.925945        -0.394284
 O         4.490997        -1.458061        -0.637446
 C         1.857477        -1.492271         0.039822
 C         2.610887         0.339048        -0.913035
 O         2.604896         1.099156        -2.064594
 H        -0.928788        -0.443589         0.090982
 H        -0.479755         1.229907        -0.106669
 H        -0.130623         0.132779        -1.389168
 H         1.940704         1.699519         1.349546
 H         1.958105         0.036549         2.253072
 H         4.447549         0.625290         0.656555
 H         4.646120        -1.862793        -1.464549
 H         1.385030        -2.068270        -0.840812
 H         1.692135        -2.092177         0.963995
 H         3.122244         1.881388        -1.758314
