19
Iteration:  1105
 C        -0.153044         0.080943        -0.154619
 C         1.333739         0.070927         0.071488
 C         2.127055         0.713275         1.193811
 C         3.354242         0.568406         0.365086
 C         3.283962        -0.848106        -0.257687
 O         4.411399        -1.516467        -0.731682
 C         1.978227        -1.402124         0.143082
 C         2.509464         0.371627        -0.871310
 O         2.690097         0.933160        -2.197134
 H        -0.749428        -0.540318         0.664764
 H        -0.553944         1.090561        -0.189843
 H        -0.324331        -0.441593        -1.090822
 H         1.842991         1.746715         1.264692
 H         2.195564         0.316825         2.250515
 H         4.216744         1.129533         0.384897
 H         4.152373        -1.676420        -1.552287
 H         1.587310        -2.013748        -0.640794
 H         1.826846        -2.000373         1.046495
 H         1.726567         1.095079        -2.456700
