19
Iteration:   307
 C        -0.287895         0.224863        -0.086809
 C         1.292919         0.069874         0.036633
 C         2.178066         0.832617         1.161812
 C         3.426894         0.483389         0.424307
 C         3.280356        -0.855199        -0.271921
 O         4.305052        -1.512896        -0.950104
 C         1.919900        -1.416812         0.191985
 C         2.552832         0.303214        -0.903254
 O         2.712665         0.854688        -2.168168
 H        -0.824995        -0.645992         0.475428
 H        -0.565948         1.108216         0.488174
 H        -0.671543         0.351502        -1.102212
 H         2.022337         1.925680         1.359235
 H         2.042673         0.210463         2.212730
 H         4.312188         1.015071         0.561290
 H         5.065709        -1.884124        -0.231799
 H         1.370691        -2.025958        -0.585676
 H         1.751639        -1.891846         1.202672
 H         3.588749         0.695513        -2.441165
