19
Iteration:  1952charge 0 multiplicity 1
 C        -0.143449         0.237318        -0.284132
 C         1.303119        -0.034808         0.049947
 C         2.102486         0.588926         1.254920
 C         3.344662         0.395742         0.370886
 C         3.186404        -0.925979        -0.388753
 O         4.433825        -1.363159        -0.757563
 C         1.855390        -1.488127         0.169551
 C         2.618644         0.371850        -0.881258
 O         2.670565         1.105577        -2.047947
 H        -0.810213        -0.143010         0.513893
 H        -0.382881         1.215796        -0.676656
 H        -0.402455        -0.444241        -1.145940
 H         1.861205         1.646805         1.440321
 H         2.014459         0.155501         2.300229
 H         4.347177         0.806129         0.665964
 H         4.459315        -1.930014        -1.436000
 H         1.341317        -2.268480        -0.510620
 H         1.794431        -2.014914         1.160068
 H         3.635107         1.398249        -2.220041
