19
Iteration:  1922
 C        -0.093280         0.371529        -0.186570
 C         1.325290        -0.103091         0.016822
 C         1.969331         0.661498         1.194895
 C         3.311336         0.429890         0.469886
 C         3.280602        -0.887257        -0.321866
 O         4.464265        -1.453304        -0.752050
 C         1.936141        -1.584485         0.016935
 C         2.624316         0.338863        -0.847791
 O         2.573194         1.034638        -2.037783
 H        -0.624266         0.216532         0.684308
 H        -0.221745         1.535258        -0.437634
 H        -0.579238        -0.264883        -0.904840
 H         1.710370         1.799459         1.060811
 H         1.769249         0.349507         2.273789
 H         4.227729         1.002693         0.925946
 H         4.742729        -1.337962        -1.738821
 H         1.625301        -1.953645        -1.024997
 H         1.816490        -2.321698         0.856606
 H         3.422769         0.976110        -2.462287
