19
Iteration:  2476charge 0 multiplicity 1
 C        -0.114580         0.224658        -0.343452
 C         1.309734         0.030246         0.061851
 C         2.055272         0.696918         1.225588
 C         3.373550         0.352444         0.523801
 C         3.215493        -0.883665        -0.266768
 O         4.412886        -1.418599        -0.842589
 C         1.878544        -1.483865         0.095622
 C         2.634405         0.321279        -0.840347
 O         2.641656         1.028233        -2.022957
 H        -0.813943        -0.219832         0.432702
 H        -0.438896         1.275742        -0.479560
 H        -0.249835        -0.355787        -1.312839
 H         1.816000         1.770546         1.158544
 H         1.885269         0.240566         2.157890
 H         4.472071         0.674370         0.597501
 H         4.305470        -1.592953        -1.708971
 H         1.432455        -2.094168        -0.692375
 H         1.741132        -1.973094         1.040629
 H         3.484188         1.456557        -2.117067
