19
Iteration:  2635
 C        -0.109237         0.265112        -0.322949
 C         1.347405        -0.069279         0.070214
 C         2.005133         0.735594         1.183724
 C         3.361008         0.486526         0.464200
 C         3.238352        -0.842262        -0.315684
 O         4.382873        -1.578775        -0.835180
 C         1.955869        -1.538344         0.127696
 C         2.586526         0.397480        -0.770848
 O         2.653460         1.096447        -2.028446
 H        -0.922660        -0.356668         0.271108
 H        -0.375242         1.342292         0.085799
 H        -0.254619         0.115620        -1.389367
 H         1.802915         1.758628         1.145198
 H         1.940185         0.310546         2.155332
 H         4.322102         0.993075         0.793303
 H         4.168705        -2.379511        -1.520846
 H         1.510496        -2.031391        -0.748362
 H         1.899542        -2.238643         1.010633
 H         3.442595         1.020814        -2.519164
