19
Iteration:  3442
 C        -0.116705         0.241039        -0.199365
 C         1.333580         0.075867        -0.006592
 C         1.981534         0.590238         1.279747
 C         3.390524         0.527270         0.555123
 C         3.264177        -0.820338        -0.223845
 O         4.340613        -1.627394        -0.920730
 C         1.857607        -1.377069         0.050615
 C         2.575333         0.566314        -0.809074
 O         2.791164         0.770851        -2.157004
 H        -0.576894        -0.326798         0.609161
 H        -0.458422         1.260548        -0.246839
 H        -0.541746        -0.251472        -1.104178
 H         1.873989         1.774204         1.455056
 H         2.060447        -0.014136         2.212297
 H         4.214302         0.985103         1.100362
 H         4.584065        -1.172240        -1.654791
 H         1.530367        -1.947220        -0.831892
 H         1.806041        -1.974598         1.001075
 H         2.706635         1.750418        -2.363455
