19
Iteration:  1444
 C        -0.076365         0.020233        -0.216696
 C         1.369123        -0.015223         0.029671
 C         2.101204         0.751065         1.268317
 C         3.376651         0.588492         0.333812
 C         3.274397        -0.832675        -0.357638
 O         4.317744        -1.732579        -0.612966
 C         2.020658        -1.438888         0.070758
 C         2.555347         0.429230        -0.914643
 O         2.494838         1.135427        -2.134883
 H        -0.447937        -0.608827         0.711189
 H        -0.636795         0.896467        -0.275348
 H        -0.266864        -0.426229        -1.147702
 H         1.645767         1.709469         1.360112
 H         2.115573         0.308546         2.335849
 H         4.283203         1.128599         0.275876
 H         4.878502        -1.376279        -1.250334
 H         1.587131        -2.050859        -0.706202
 H         2.001312        -1.966508         1.046262
 H         3.114140         1.939798        -2.249289
