19
Iteration:  3982charge 0 multiplicity 1
 C        -0.016358         0.211774        -0.397424
 C         1.382796        -0.040742         0.128320
 C         2.110418         0.784697         1.245902
 C         3.374267         0.487172         0.498829
 C         3.243545        -0.880520        -0.330940
 O         4.403309        -1.699680        -0.764360
 C         1.902926        -1.460553         0.096199
 C         2.552911         0.379631        -0.840256
 O         2.589305         1.111104        -2.076020
 H        -0.745048        -0.171481         0.241189
 H        -0.136735         1.202562        -0.650702
 H        -0.177137        -0.471605        -1.235289
 H         1.811035         1.884467         0.930787
 H         1.798956         0.370930         2.264536
 H         4.304786         0.976606         0.661924
 H         3.949721        -2.328897        -1.427287
 H         1.280502        -1.940461        -0.675722
 H         1.773541        -1.943075         1.061249
 H         2.396857         2.086550        -1.830379
