19
Iteration:   574
 C        -0.177129         0.298837        -0.177027
 C         1.335122         0.008829         0.063281
 C         2.163811         0.727993         1.242609
 C         3.432903         0.599470         0.346850
 C         3.289374        -0.858263        -0.208436
 O         4.333791        -1.545258        -0.928912
 C         1.815557        -1.429168         0.136896
 C         2.584086         0.368833        -0.853402
 O         2.579030         0.851396        -2.120252
 H        -0.807579        -0.118631         0.576162
 H        -0.566724         1.343728        -0.387152
 H        -0.404627        -0.344838        -1.106402
 H         1.946297         1.698959         1.473625
 H         2.364714         0.253726         2.186895
 H         4.422697         0.974702         0.507540
 H         5.129619        -1.599432        -0.163283
 H         1.645008        -2.101295        -0.818695
 H         1.792516        -1.896622         1.132376
 H         3.273572         0.325406        -2.535738
