19
Iteration:  1131charge 0 multiplicity 1
 C        -0.101417         0.193207        -0.230496
 C         1.367778         0.008957         0.138581
 C         2.105569         0.717364         1.264683
 C         3.395519         0.628790         0.473597
 C         3.211127        -0.819700        -0.365559
 O         4.372517        -1.426945        -0.783845
 C         1.943210        -1.518584         0.126677
 C         2.601643         0.363317        -0.842339
 O         2.587237         0.732191        -2.250270
 H        -0.647139        -0.135018         0.582624
 H        -0.369414         1.289883        -0.355212
 H        -0.417690        -0.495015        -1.100451
 H         1.427765         1.728562         1.385377
 H         2.195672         0.350858         2.292943
 H         4.482680         0.975545         0.711528
 H         4.690357        -0.873497        -1.477880
 H         1.457228        -2.264502        -0.528345
 H         2.062342        -1.968118         1.113944
 H         2.218931         1.647336        -2.169364
