19
Iteration:  3815
 C        -0.069835         0.284689        -0.393906
 C         1.361554         0.052970         0.013536
 C         2.053506         0.742934         1.252769
 C         3.389575         0.500788         0.445016
 C         3.225018        -1.001855        -0.374740
 O         4.439422        -1.590357        -0.813805
 C         1.869683        -1.509853         0.222856
 C         2.599536         0.329675        -0.845272
 O         2.600838         1.057732        -1.995726
 H        -0.763229        -0.032234         0.509765
 H        -0.289725         1.376455        -0.595918
 H        -0.535299        -0.296834        -1.179282
 H         1.645982         1.780192         1.081487
 H         1.798381         0.163810         2.170563
 H         4.406581         0.777062         0.595068
 H         4.281215        -1.882477        -1.701060
 H         1.373892        -2.167153        -0.486441
 H         1.895318        -1.860786         1.272351
 H         3.134507         1.897890        -1.858223
