19
Iteration:  4053
 C        -0.126000         0.375333        -0.167425
 C         1.281100         0.012671         0.027314
 C         2.021590         0.599702         1.258527
 C         3.351612         0.500858         0.443749
 C         3.219215        -0.844700        -0.317981
 O         4.441339        -1.433952        -0.682329
 C         1.831973        -1.555437         0.009541
 C         2.590091         0.324471        -0.908057
 O         2.745060         0.911000        -2.176685
 H        -0.653890        -0.055379         0.786187
 H        -0.029618         1.488210        -0.240302
 H        -0.675340        -0.205498        -0.914433
 H         1.712437         1.587889         1.328502
 H         2.128585         0.051184         2.183930
 H         4.263419         1.066470         0.694398
 H         4.481987        -1.901193        -1.621668
 H         1.557229        -2.241577        -0.809281
 H         1.856806        -2.205259         0.926186
 H         3.077972         1.856069        -2.042509
