19
Iteration:  2554charge 0 multiplicity 1
 C        -0.108405         0.247279        -0.186773
 C         1.338444         0.050641        -0.020163
 C         2.056909         0.605663         1.200488
 C         3.373571         0.511169         0.446653
 C         3.287646        -0.910459        -0.240214
 O         4.438557        -1.568533        -0.639710
 C         1.891953        -1.464949        -0.113734
 C         2.626177         0.454587        -0.841169
 O         2.656510         1.028469        -2.080474
 H        -0.652301        -0.142331         0.708451
 H        -0.361179         1.250870        -0.393894
 H        -0.514567        -0.348682        -1.067972
 H         1.735616         1.659479         1.258660
 H         1.869145         0.238487         2.176401
 H         4.332459         0.801708         0.762543
 H         4.351073        -2.095750        -1.560162
 H         1.445923        -1.857962        -1.049393
 H         1.650594        -2.069111         0.723899
 H         1.776902         1.310234        -2.272715
