19
Iteration:  2351
 C        -0.184169         0.299531        -0.240302
 C         1.327445        -0.098151         0.048098
 C         2.036485         0.600876         1.290201
 C         3.330898         0.578692         0.458762
 C         3.280851        -0.827642        -0.263320
 O         4.403213        -1.584683        -0.762449
 C         1.941496        -1.508849        -0.050786
 C         2.575161         0.392665        -0.919135
 O         2.795110         1.045676        -2.029209
 H        -0.791833         0.194347         0.643191
 H        -0.339436         1.454271        -0.700987
 H        -0.626657        -0.320534        -1.027098
 H         1.595190         1.539223         1.731753
 H         2.224331        -0.048364         2.219558
 H         4.176244         1.165346         0.797906
 H         4.105444        -2.057522        -1.584089
 H         1.612877        -1.748531        -1.031104
 H         1.873544        -2.265926         0.736251
 H         2.049226         1.494785        -2.299586
