19
Iteration:  4703charge 0 multiplicity 1
 C        -0.116574         0.292929        -0.247105
 C         1.327790         0.011442        -0.022637
 C         2.023244         0.615091         1.250122
 C         3.303596         0.476637         0.454388
 C         3.286425        -0.886928        -0.316503
 O         4.429180        -1.624220        -0.658521
 C         1.917808        -1.479303         0.031659
 C         2.567843         0.381267        -0.934247
 O         2.676178         1.180448        -2.061671
 H        -0.708340        -0.141017         0.652836
 H        -0.433993         1.311463        -0.293680
 H        -0.389955        -0.081832        -1.206487
 H         1.914723         1.775875         1.447918
 H         1.946902        -0.100929         2.215277
 H         4.321561         0.780721         0.680899
 H         4.216238        -2.195543        -1.352708
 H         1.425344        -2.006750        -0.815744
 H         1.893505        -1.892841         1.020232
 H         3.145184         0.755918        -2.712120
