19
Iteration:  2274
 C        -0.076943         0.265094        -0.264641
 C         1.299283        -0.122086         0.086508
 C         2.005517         0.689144         1.157312
 C         3.232517         0.550526         0.437911
 C         3.230142        -0.898606        -0.299765
 O         4.389968        -1.557295        -0.902747
 C         1.950179        -1.559232         0.056118
 C         2.558415         0.297522        -0.827577
 O         2.701425         1.059434        -1.948921
 H        -0.823547         0.158270         0.498381
 H         0.003807         1.492137        -0.505596
 H        -0.447829        -0.142802        -1.218302
 H         1.769281         1.741422         1.283959
 H         2.017916         0.404387         2.192764
 H         4.245106         1.110627         0.455274
 H         5.174944        -0.890367        -0.876208
 H         1.627701        -2.149155        -0.797000
 H         1.843310        -2.132453         0.984322
 H         3.465113         1.721014        -1.845540
