19
Iteration:  1717
 C        -0.086531         0.413313        -0.228306
 C         1.338729        -0.130403         0.069061
 C         1.945194         0.600307         1.229869
 C         3.266942         0.496062         0.482377
 C         3.248686        -0.907107        -0.305438
 O         4.454893        -1.313319        -0.894843
 C         1.991881        -1.604438         0.046562
 C         2.586477         0.342419        -0.863704
 O         2.718030         0.896237        -2.124211
 H        -0.563213         0.230957         0.802330
 H         0.097251         1.469553        -0.213440
 H        -0.796533         0.236043        -0.978364
 H         1.604088         1.662826         1.303659
 H         1.702004         0.245975         2.254511
 H         4.308321         1.054855         0.825962
 H         4.478922        -2.191224        -0.689507
 H         1.340924        -2.228312        -0.562908
 H         1.844273        -2.108485         1.098138
 H         2.466140         1.804126        -2.018927
