19
Iteration:  4155charge 0 multiplicity 1
 C        -0.077476         0.282503        -0.320435
 C         1.330423        -0.050516         0.121040
 C         2.038021         0.808581         1.175714
 C         3.296689         0.571761         0.446331
 C         3.237373        -0.949241        -0.383556
 O         4.341387        -1.650383        -0.813852
 C         1.938224        -1.570751         0.173308
 C         2.610089         0.343068        -0.822296
 O         2.671375         1.040522        -2.020821
 H        -0.798364        -0.215104         0.332488
 H        -0.251626         1.434204        -0.482419
 H        -0.188773        -0.121072        -1.373662
 H         1.762556         1.762017         1.258479
 H         1.884458         0.440126         2.151013
 H         4.344061         0.927222         0.609757
 H         4.756067        -1.336822        -1.614007
 H         1.461412        -2.080914        -0.652250
 H         1.951665        -2.147685         1.104539
 H         3.126294         1.890267        -1.958827
