19
Iteration:  3807charge 0 multiplicity 1
 C        -0.088651         0.316498        -0.388358
 C         1.374038        -0.038823         0.009060
 C         2.015556         0.729591         1.158092
 C         3.385130         0.483337         0.445657
 C         3.257036        -0.934880        -0.406561
 O         4.431077        -1.667541        -0.769752
 C         1.910961        -1.451586         0.216029
 C         2.592680         0.366502        -0.819025
 O         2.544405         1.084975        -1.960624
 H        -0.646407         0.049158         0.656740
 H        -0.461662         1.296480        -0.547397
 H        -0.224097        -0.201698        -1.337380
 H         1.933254         1.750525         1.241953
 H         1.843352         0.337646         2.134073
 H         4.457534         0.749108         0.552917
 H         4.428342        -1.985199        -1.739995
 H         1.531250        -2.267022        -0.443134
 H         1.797052        -1.918660         1.217521
 H         3.106188         1.888812        -1.927871
