19
Iteration:  4670charge 0 multiplicity 1
 C        -0.071858         0.255382        -0.397397
 C         1.315865        -0.045865         0.022435
 C         2.083487         0.688795         1.215203
 C         3.358229         0.420207         0.454138
 C         3.205196        -0.879484        -0.298453
 O         4.347211        -1.419958        -0.809854
 C         1.859318        -1.592384         0.133912
 C         2.521765         0.349402        -0.806597
 O         2.822129         1.132571        -1.962280
 H        -0.840759         0.372317         0.484909
 H        -0.000326         1.226923        -0.882554
 H        -0.358362        -0.523888        -1.069133
 H         1.952368         1.843759         1.322292
 H         2.113407         0.460091         2.327664
 H         4.360498         0.753397         0.632331
 H         4.120913        -2.172425        -1.372732
 H         1.405808        -2.225945        -0.670091
 H         1.886497        -2.208541         1.023646
 H         2.129905         0.759962        -2.617156
