19
Iteration:  4128charge 0 multiplicity 1
 C        -0.141711         0.236709        -0.297859
 C         1.319710         0.021101         0.048450
 C         2.106304         0.650885         1.253601
 C         3.345200         0.483426         0.447892
 C         3.262904        -0.842389        -0.228713
 O         4.237229        -1.504632        -0.850859
 C         1.887525        -1.449874         0.166175
 C         2.574624         0.368931        -0.848943
 O         2.830474         0.885586        -2.106824
 H        -0.721757        -0.614371         0.172180
 H        -0.446081         1.216802        -0.149544
 H        -0.247429        -0.038679        -1.346544
 H         1.781069         1.847814         1.353515
 H         2.009291         0.176503         2.417185
 H         4.299415         0.974219         0.445588
 H         4.587148        -1.120499        -1.636453
 H         1.582185        -2.054757        -0.717572
 H         1.727880        -1.955990         1.143126
 H         2.827781         1.869213        -2.147108
