19
Iteration:  2319charge 0 multiplicity 1
 C        -0.073196         0.160301        -0.270389
 C         1.363703         0.005768         0.047516
 C         2.049295         0.572593         1.300138
 C         3.383697         0.438142         0.517447
 C         3.200565        -0.797684        -0.366010
 O         4.282833        -1.486115        -0.794915
 C         1.850827        -1.443677         0.041840
 C         2.625518         0.467374        -0.833094
 O         2.805817         0.957029        -2.110609
 H        -0.709354         0.276190         0.632556
 H        -0.329166         1.094313        -1.025738
 H        -0.420649        -0.731527        -0.834121
 H         1.640232         1.554032         1.603950
 H         1.905031        -0.059048         2.169498
 H         4.355940         0.705188         0.938124
 H         4.781558        -0.884318        -1.464643
 H         1.361707        -1.955658        -0.753163
 H         1.784380        -2.074784         0.947090
 H         2.150957         1.734006        -2.277944
