19
Iteration:  3509
 C        -0.142462         0.303055        -0.302084
 C         1.337575         0.002025        -0.011541
 C         2.080457         0.674037         1.257073
 C         3.336976         0.402626         0.460325
 C         3.263424        -0.911795        -0.325722
 O         4.375477        -1.502234        -0.807080
 C         1.929157        -1.481507         0.169431
 C         2.592203         0.323191        -0.884380
 O         2.686038         1.033925        -2.058811
 H        -0.505719         0.094275         0.664885
 H        -0.235793         1.354835        -0.445313
 H        -0.674299        -0.205738        -1.104853
 H         1.769281         1.790052         1.062913
 H         1.786846         0.124250         2.157637
 H         4.326585         0.705655         0.736082
 H         4.081255        -1.903476        -1.731901
 H         1.378900        -2.185110        -0.439335
 H         1.928291        -1.871573         1.250031
 H         3.132672         1.877082        -1.957707
