19
Iteration:  2406charge 0 multiplicity 1
 C        -0.151438         0.250770        -0.306500
 C         1.339414        -0.020720         0.064282
 C         2.109927         0.621387         1.315314
 C         3.374343         0.417237         0.359560
 C         3.177962        -0.921998        -0.369229
 O         4.482518        -1.476379        -0.628772
 C         1.848463        -1.488625         0.023824
 C         2.587017         0.349199        -0.901764
 O         2.614000         1.100524        -2.044772
 H        -0.877542        -0.430805        -0.001312
 H        -0.491446         1.308318        -0.079486
 H        -0.118903         0.129667        -1.363740
 H         1.955659         1.711089         1.362956
 H         2.089852         0.049730         2.279713
 H         4.338549         0.796459         0.489810
 H         4.565135        -1.769695        -1.617297
 H         1.438494        -2.040695        -0.786921
 H         1.675294        -2.073220         0.935235
 H         3.187664         1.875644        -1.963249
