19
Iteration:    92charge 0 multiplicity 1
 C        -0.083984         0.283394        -0.192908
 C         1.368865         0.001614         0.041281
 C         2.094890         0.796472         1.177729
 C         3.435040         0.511516         0.357167
 C         3.167875        -0.890908        -0.395442
 O         4.341382        -1.548481        -0.785192
 C         1.979295        -1.464914         0.272764
 C         2.537583         0.354369        -0.884827
 O         2.637166         0.896365        -2.154476
 H        -0.687156        -0.476675         0.148556
 H        -0.439715         1.222730         0.239855
 H        -0.320304         0.330549        -1.389355
 H         1.631419         1.886525         1.234862
 H         2.096417         0.332469         2.209504
 H         4.509811         0.624395         0.633815
 H         4.991071        -1.518989        -0.172709
 H         1.482252        -2.263566        -0.390005
 H         2.001414        -1.861630         1.280115
 H         1.821552         1.086627        -2.581989
