19
Iteration:  3941
 C        -0.101591         0.260287        -0.263827
 C         1.307124        -0.001493         0.037051
 C         2.096571         0.608703         1.245716
 C         3.372342         0.471250         0.404363
 C         3.230348        -0.869125        -0.305099
 O         4.412523        -1.505490        -0.728085
 C         1.795319        -1.460248         0.192677
 C         2.537945         0.337878        -0.908495
 O         2.752363         1.012878        -2.151396
 H        -0.971217        -0.398602         0.211317
 H        -0.343315         1.333107        -0.150927
 H        -0.329021         0.040313        -1.331199
 H         1.904177         1.597831         1.436024
 H         2.250871         0.191104         2.207954
 H         4.296594         0.992737         0.575592
 H         4.302004        -1.853458        -1.585015
 H         1.426095        -2.151976        -0.602286
 H         1.708896        -1.941078         1.175171
 H         3.000011         1.931582        -1.996578
