19
Iteration:   283charge 0 multiplicity 1
 C         0.011373         0.238001        -0.189712
 C         1.425685        -0.017195         0.113538
 C         2.155475         0.789105         1.211802
 C         3.363817         0.590158         0.397864
 C         3.182777        -0.875560        -0.339519
 O         4.273802        -1.573914        -0.813143
 C         1.871795        -1.484348         0.142922
 C         2.605914         0.383591        -0.884803
 O         2.522439         0.921992        -2.187397
 H        -0.536957        -0.669722         0.323516
 H        -0.407240         1.140435         0.284713
 H        -0.167463         0.249582        -1.205139
 H         1.784334         1.895482         1.191345
 H         2.296195         0.467612         2.329211
 H         4.432082         0.881127         0.408580
 H         4.743781        -1.965224        -0.108161
 H         1.213568        -1.985925        -0.539190
 H         1.803291        -1.987266         1.204306
 H         3.421619         0.949453        -2.619828
