19
Iteration:   793charge 0 multiplicity 1
 C        -0.012477         0.297815        -0.331392
 C         1.390370         0.009508         0.166593
 C         2.149087         0.691380         1.282388
 C         3.366468         0.566507         0.401135
 C         3.249118        -0.849347        -0.287062
 O         4.333089        -1.488488        -0.881283
 C         1.974873        -1.491298         0.155947
 C         2.551827         0.366044        -0.840824
 O         2.423743         0.886814        -2.131363
 H        -0.701446         0.207857         0.460170
 H        -0.124500         1.345306        -0.749174
 H        -0.152253        -0.426202        -1.204668
 H         1.913208         1.804593         1.455065
 H         2.247485         0.063330         2.247229
 H         4.259311         1.118796         0.370780
 H         4.893465        -1.695811         0.064823
 H         1.379554        -2.036305        -0.664059
 H         1.811640        -2.118078         0.992980
 H         3.057537         0.309402        -2.640003
