19
Iteration:   339
 C        -0.107898         0.222925         0.019107
 C         1.323043        -0.040755         0.155291
 C         2.051033         0.788649         1.106283
 C         3.350617         0.580790         0.391345
 C         3.184362        -0.830486        -0.339887
 O         4.233446        -1.436358        -0.959383
 C         1.897079        -1.455009         0.162314
 C         2.539016         0.371737        -0.926188
 O         2.898762         0.811188        -2.135942
 H        -0.871529        -0.430144         0.622064
 H        -0.196408         1.278325         0.218484
 H        -0.373971         0.092560        -1.002622
 H         1.810143         1.860049         1.326920
 H         2.018648         0.235533         2.084878
 H         4.320972         0.886264         0.612750
 H         4.876868        -1.613663        -0.388707
 H         1.269949        -2.002633        -0.584450
 H         1.855945        -1.908753         1.235537
 H         3.062787        -0.014640        -2.735277
