19
Iteration:   239
 C        -0.006469         0.353308        -0.401737
 C         1.414786        -0.005042        -0.002086
 C         2.210290         0.689791         1.159071
 C         3.477613         0.507493         0.352897
 C         3.277064        -0.932797        -0.328792
 O         4.414940        -1.636737        -0.749291
 C         1.897381        -1.422159         0.217981
 C         2.554713         0.324833        -0.861288
 O         2.219443         1.014953        -1.996510
 H        -0.738487         0.355966         0.520951
 H         0.086685         1.413178        -0.728741
 H        -0.407754        -0.175591        -1.193563
 H         2.053463         1.848557         1.339007
 H         2.051107         0.154887         2.217730
 H         4.351682         1.170588         0.604562
 H         4.793342        -1.943765        -0.007503
 H         1.577909        -2.167944        -0.460663
 H         1.894451        -1.765532         1.319371
 H         3.005007         0.897605        -2.619335
