19
Iteration:  1677
 C        -0.073657         0.162197        -0.382172
 C         1.334980         0.010896         0.072986
 C         2.161499         0.589100         1.331053
 C         3.340253         0.547044         0.446376
 C         3.234445        -0.873696        -0.341281
 O         4.398616        -1.508477        -0.721093
 C         1.872039        -1.414794         0.065529
 C         2.607421         0.399936        -0.827218
 O         2.585459         0.987272        -2.108128
 H        -0.724339        -0.110942         0.520866
 H        -0.354701         1.235089        -0.594424
 H        -0.225056        -0.326156        -1.378105
 H         2.044416         1.633432         1.573738
 H         2.202422         0.046849         2.339594
 H         4.304764         1.016991         0.652956
 H         4.344497        -1.967723        -1.671414
 H         1.438056        -2.030397        -0.763819
 H         1.887982        -2.134898         0.877271
 H         2.350106         1.958155        -1.972165
