19
Iteration:   749charge 0 multiplicity 1
 C        -0.098065         0.305515        -0.066915
 C         1.305262        -0.005688         0.114391
 C         1.999095         0.725037         1.252064
 C         3.401117         0.508010         0.452407
 C         3.199374        -0.869912        -0.314075
 O         4.335376        -1.360268        -0.929586
 C         1.970912        -1.461993         0.144527
 C         2.547521         0.385597        -0.911918
 O         2.742862         0.787028        -2.193962
 H        -0.742690        -0.256539         0.543827
 H        -0.354841         1.408171        -0.012164
 H        -0.388844        -0.042571        -1.138305
 H         1.817309         1.848753         1.067180
 H         1.892811         0.369335         2.340940
 H         4.260340         1.197994         0.587481
 H         4.870619        -2.093970        -0.418044
 H         1.476683        -2.206090        -0.607659
 H         2.051561        -2.011158         1.049664
 H         2.698974        -0.044230        -2.793355
