19
Iteration:  4869
 C        -0.201108         0.313199        -0.222622
 C         1.235102        -0.028660         0.113057
 C         1.998879         0.671929         1.324621
 C         3.356152         0.487341         0.481544
 C         3.220802        -0.853210        -0.346555
 O         4.390537        -1.496153        -0.754956
 C         1.871557        -1.512588        -0.049219
 C         2.634212         0.362202        -0.827860
 O         2.837174         0.909036        -2.148141
 H        -0.790464         0.324924         0.731446
 H        -0.139650         1.270862        -0.632172
 H        -0.468291        -0.299191        -1.005525
 H         1.711237         1.791198         1.290363
 H         1.999865         0.014805         2.247858
 H         4.361355         0.772093         0.717588
 H         4.418824        -1.358745        -1.782288
 H         1.385621        -2.054711        -0.935786
 H         1.909126        -2.181385         0.889072
 H         3.319484         1.854084        -2.046683
