19
Iteration:   697charge 0 multiplicity 1
 C        -0.174743         0.045195        -0.056642
 C         1.315042         0.023041         0.033225
 C         2.166282         0.776423         1.190257
 C         3.385883         0.522642         0.349571
 C         3.197690        -0.790269        -0.322835
 O         4.286279        -1.627835        -0.814585
 C         1.875545        -1.320139         0.203743
 C         2.549616         0.376444        -1.008714
 O         2.785664         1.036427        -2.124061
 H        -0.617409        -0.499562         0.868005
 H        -0.624374         1.045675         0.016688
 H        -0.526004        -0.395920        -0.939052
 H         1.840193         1.742404         1.250285
 H         2.192528         0.286480         2.177586
 H         4.314774         1.070941         0.239628
 H         4.948890        -1.756305        -0.263342
 H         1.458496        -2.006907        -0.590464
 H         1.777574        -1.928590         1.131117
 H         3.035160         0.342547        -2.847068
