19
Iteration:   875
 C        -0.141584         0.112750        -0.115199
 C         1.333856        -0.045963         0.114914
 C         2.149488         0.794990         1.098434
 C         3.408984         0.573415         0.287194
 C         3.172080        -0.813334        -0.412224
 O         4.329804        -1.745204        -0.605049
 C         1.976613        -1.533369         0.139761
 C         2.561426         0.436072        -0.979880
 O         2.552705         1.133123        -2.159896
 H        -0.683725        -0.500968         0.749273
 H        -0.520677         1.127168        -0.109316
 H        -0.563139        -0.398114        -0.963810
 H         1.828122         1.843656         1.202453
 H         2.100513         0.392961         2.174862
 H         4.566941         0.752260         0.272378
 H         5.272051        -1.179861        -0.527840
 H         1.402391        -2.092523        -0.564983
 H         2.194548        -2.021637         1.174549
 H         3.475394         1.602177        -2.075596
