19
Iteration:  3173
 C        -0.140946         0.346662        -0.333604
 C         1.255330        -0.115708         0.051707
 C         2.070164         0.721721         1.167921
 C         3.361481         0.526577         0.361332
 C         3.236583        -0.890276        -0.311024
 O         4.416700        -1.534911        -0.796803
 C         2.002122        -1.573005         0.180772
 C         2.507174         0.293427        -0.847096
 O         2.753720         1.030583        -1.978972
 H        -0.995913        -0.088566         0.396107
 H        -0.224513         1.452446        -0.070399
 H        -0.412680         0.085714        -1.327062
 H         1.647339         1.818204         1.100023
 H         1.901241         0.414322         2.208793
 H         4.315515         1.139047         0.248163
 H         4.022420        -2.198904        -1.273601
 H         1.638191        -2.081415        -0.726006
 H         1.888784        -2.205342         1.131999
 H         2.735190         2.043102        -1.816710
