19
Iteration:  3849
 C        -0.137488         0.259537        -0.304581
 C         1.314154        -0.011486         0.128806
 C         2.135878         0.612291         1.274597
 C         3.408840         0.473760         0.406376
 C         3.124791        -0.816693        -0.308772
 O         4.324509        -1.439984        -0.786035
 C         1.891330        -1.501238         0.094520
 C         2.501145         0.437351        -0.814231
 O         2.861052         0.858006        -2.132625
 H        -0.862940         0.165961         0.680775
 H        -0.202951         1.290776        -0.633327
 H        -0.366946        -0.379165        -1.170045
 H         1.625150         1.649303         1.419137
 H         1.950228         0.297462         2.333219
 H         4.429862         0.832822         0.593567
 H         4.215884        -1.598853        -1.661180
 H         1.430712        -2.043278        -0.752658
 H         1.808752        -2.209052         0.943000
 H         2.882131         1.887812        -2.076246
