19
Iteration:  1537charge 0 multiplicity 1
 C        -0.103943         0.233761        -0.200548
 C         1.375908        -0.020843         0.048290
 C         2.028555         0.600073         1.289774
 C         3.357793         0.578227         0.508180
 C         3.269244        -0.756924        -0.282708
 O         4.304132        -1.470783        -0.841419
 C         1.965105        -1.458880         0.023978
 C         2.538463         0.416151        -0.811616
 O         2.679475         0.764704        -2.179091
 H        -0.620747         0.085165         0.614971
 H        -0.362572         1.277230        -0.579124
 H        -0.456701        -0.383808        -1.079105
 H         1.706088         1.602594         1.703457
 H         2.254712        -0.032232         2.115127
 H         4.359255         1.085291         0.853963
 H         5.114627        -0.874664        -1.127331
 H         1.628939        -1.938589        -0.952625
 H         1.885933        -2.231350         0.831975
 H         2.312471         1.629112        -2.263700
