19
Iteration:  3466
 C        -0.102930         0.221566        -0.291551
 C         1.312415        -0.042301         0.122009
 C         2.054037         0.714514         1.339377
 C         3.412342         0.528063         0.491257
 C         3.133409        -0.846073        -0.294137
 O         4.197977        -1.472634        -0.890809
 C         1.875566        -1.481742         0.078386
 C         2.637119         0.380538        -0.832742
 O         2.888731         0.843800        -2.107309
 H        -0.748382        -0.090836         0.497543
 H        -0.250721         1.256851        -0.614008
 H        -0.610747        -0.498308        -1.151221
 H         1.816154         1.832684         1.371792
 H         2.241882         0.299393         2.364379
 H         4.415208         0.856115         0.543440
 H         4.472851        -0.978303        -1.795287
 H         1.581230        -1.972909        -0.816134
 H         1.988679        -2.138136         0.989414
 H         2.580157         1.820239        -2.071619
