19
Iteration:    25charge 0 multiplicity 1
 C        -0.033715         0.235687        -0.262422
 C         1.414494        -0.003866         0.116507
 C         2.173211         0.775305         1.218767
 C         3.365814         0.525666         0.412548
 C         3.224028        -0.881972        -0.383507
 O         4.417454        -1.622294        -0.705560
 C         1.971835        -1.459798         0.190920
 C         2.569082         0.361513        -0.911988
 O         2.347250         1.016366        -2.212094
 H        -0.728962        -0.368055         0.197904
 H        -0.350314         1.284965        -0.118717
 H        -0.114800         0.011250        -1.464525
 H         1.701779         1.861468         1.351527
 H         2.079856         0.344673         2.269643
 H         4.401717         0.943003         0.466162
 H         4.640385        -1.987011         0.182568
 H         1.472112        -2.188188        -0.542358
 H         1.880699        -1.874694         1.180532
 H         3.292080         1.066682        -2.719834
