19
Iteration:   391
 C        -0.084185         0.265654        -0.204277
 C         1.380207         0.008967         0.080376
 C         2.126249         0.722037         1.224584
 C         3.406820         0.518606         0.364339
 C         3.234234        -0.886479        -0.391358
 O         4.360465        -1.573581        -0.828473
 C         1.916461        -1.423011         0.157920
 C         2.591438         0.359599        -0.900180
 O         2.547219         0.993328        -2.082510
 H        -0.556350         0.398578         0.799443
 H        -0.286303         1.170849        -0.788713
 H        -0.547012        -0.581180        -0.621520
 H         1.929008         1.845785         1.148479
 H         1.980256         0.380274         2.256564
 H         4.353845         0.951508         0.545851
 H         4.874473        -2.012464         0.026063
 H         1.435891        -2.080571        -0.489823
 H         1.760704        -1.810178         1.186770
 H         2.413215         0.270952        -2.777194
