19
Iteration:   881
 C        -0.146925         0.104278        -0.086026
 C         1.352997        -0.036801         0.083332
 C         2.118413         0.777600         1.127486
 C         3.414005         0.593062         0.291271
 C         3.196165        -0.837208        -0.394100
 O         4.307909        -1.731939        -0.613865
 C         1.987444        -1.471575         0.109069
 C         2.571213         0.392457        -0.967028
 O         2.574424         1.109956        -2.172748
 H        -0.500598        -0.402394         0.762585
 H        -0.694488         1.074824        -0.020523
 H        -0.480897        -0.402009        -1.038359
 H         1.764038         1.798592         1.298794
 H         2.249626         0.332394         2.139095
 H         4.448088         0.698355         0.329294
 H         5.194223        -1.225286        -0.491000
 H         1.348738        -2.112430        -0.569991
 H         2.084133        -1.808218         1.089995
 H         3.275668         1.761191        -2.193403
