19
Iteration:  3667charge 0 multiplicity 1
 C        -0.130357         0.175144        -0.249202
 C         1.292256         0.027118         0.070599
 C         2.047062         0.615501         1.286883
 C         3.398176         0.479498         0.596584
 C         3.189429        -0.835852        -0.270550
 O         4.250473        -1.395916        -0.968399
 C         1.861144        -1.380703         0.065981
 C         2.631545         0.449127        -0.801533
 O         2.875843         0.737067        -2.146677
 H        -0.759737         0.162853         0.508635
 H        -0.383545         1.176217        -0.577617
 H        -0.398725        -0.424929        -1.187612
 H         1.784245         1.772448         1.555938
 H         1.993093         0.006327         2.279728
 H         4.402459         0.647857         0.909086
 H         4.553913        -0.874673        -1.720697
 H         1.204292        -2.076885        -0.489968
 H         1.819648        -1.835224         1.055299
 H         3.031616         1.650647        -2.184693
