19
Iteration:   546
 C        -0.110381         0.223761        -0.018113
 C         1.370038        -0.029975         0.080526
 C         2.038892         0.836089         1.215323
 C         3.326015         0.518508         0.416378
 C         3.167974        -0.819609        -0.318988
 O         4.234874        -1.440541        -0.942616
 C         1.899228        -1.456682         0.141696
 C         2.633261         0.334555        -0.928836
 O         2.759691         0.821139        -2.210583
 H        -0.717835        -0.536487         0.657178
 H        -0.284555         1.247360         0.242179
 H        -0.493546         0.117237        -0.973753
 H         2.012538         2.037030         1.313861
 H         2.072595         0.498983         2.316462
 H         4.388465         0.911954         0.628248
 H         4.679520        -2.033042        -0.074464
 H         1.536995        -1.968128        -0.663620
 H         2.078325        -2.008658         1.085137
 H         3.639834         0.396914        -2.457985
