19
Iteration:  1843
 C        -0.073921         0.238980        -0.329323
 C         1.323596        -0.001103         0.039309
 C         2.075459         0.709359         1.239400
 C         3.357310         0.416232         0.362215
 C         3.221620        -0.957156        -0.328842
 O         4.446484        -1.459485        -0.754760
 C         1.892003        -1.548127         0.099597
 C         2.554275         0.323518        -0.877640
 O         2.614450         1.113195        -1.980285
 H        -0.730320        -0.436829         0.175129
 H        -0.453085         1.265244        -0.085076
 H        -0.134598         0.038902        -1.443663
 H         1.852147         1.795462         1.133288
 H         2.010348         0.278512         2.319292
 H         4.289342         0.865097         0.443510
 H         4.370086        -2.136019        -1.321160
 H         1.246752        -2.248949        -0.574501
 H         1.918460        -1.918215         1.178827
 H         3.188062         1.888456        -1.822821
