19
Iteration:   579
 C        -0.160001         0.278769        -0.219743
 C         1.331582         0.023696         0.023095
 C         2.197183         0.703964         1.260611
 C         3.419017         0.583132         0.361052
 C         3.284562        -0.845379        -0.223212
 O         4.327927        -1.537287        -0.891098
 C         1.841665        -1.424814         0.164886
 C         2.594566         0.369131        -0.861831
 O         2.548132         0.856589        -2.110223
 H        -0.901318         0.002024         0.648853
 H        -0.373194         1.312133        -0.451441
 H        -0.457648        -0.271521        -1.071577
 H         2.033139         1.854262         1.473721
 H         2.294383         0.109259         2.235156
 H         4.463077         0.973250         0.522427
 H         5.059759        -1.556569        -0.334358
 H         1.547491        -2.025544        -0.642980
 H         1.811845        -2.113585         1.080589
 H         3.128728         0.377074        -2.807390
