19
Iteration:   179
 C        -0.242371         0.268115        -0.099221
 C         1.320754         0.083683         0.010970
 C         2.135440         0.718580         1.187642
 C         3.382651         0.571566         0.364309
 C         3.266113        -0.968657        -0.214173
 O         4.338878        -1.501706        -0.910909
 C         1.899793        -1.404856         0.179543
 C         2.621723         0.318323        -0.884678
 O         2.637969         0.888443        -2.171819
 H        -0.608753         0.560618         0.793578
 H        -0.499948         1.015056        -0.831009
 H        -0.748463        -0.723679        -0.439908
 H         1.949086         1.760007         1.338965
 H         2.172114         0.219303         2.081685
 H         4.269993         1.021517         0.724909
 H         5.124226        -2.055299        -0.328226
 H         1.411741        -2.073400        -0.622401
 H         1.778939        -1.926915         1.118708
 H         3.640684         1.005578        -2.362220
