19
Iteration:  1945
 C        -0.143931         0.232813        -0.250334
 C         1.328785        -0.056166         0.011116
 C         2.081551         0.629316         1.267005
 C         3.335518         0.376398         0.414885
 C         3.161758        -0.924957        -0.378273
 O         4.481241        -1.363612        -0.741140
 C         1.851916        -1.516399         0.113429
 C         2.602665         0.356861        -0.880332
 O         2.654184         1.098165        -2.048278
 H        -0.860783         0.079603         0.504592
 H        -0.263729         1.384936        -0.567382
 H        -0.433893        -0.381005        -1.067326
 H         1.776926         1.751167         1.326013
 H         1.960206         0.140709         2.274877
 H         4.430996         0.736718         0.540982
 H         4.456414        -1.777115        -1.659036
 H         1.326680        -2.230463        -0.555224
 H         1.940349        -1.817559         1.181466
 H         3.615475         1.220400        -2.218640
