19
Iteration:   934charge 0 multiplicity 1
 C        -0.141985         0.233730        -0.142344
 C         1.323100        -0.076722         0.140410
 C         2.120579         0.755404         1.228527
 C         3.351475         0.574506         0.441071
 C         3.179374        -0.797322        -0.355238
 O         4.310855        -1.522638        -0.844716
 C         1.956412        -1.523708         0.114072
 C         2.618353         0.378349        -0.889678
 O         2.718075         0.848220        -2.181370
 H        -0.757238        -0.066658         0.664449
 H        -0.193655         1.406764        -0.085494
 H        -0.511621        -0.153192        -1.223450
 H         2.026754         1.894104         1.140910
 H         2.143062         0.449930         2.211634
 H         4.323939         0.915973         0.467042
 H         5.058382        -1.011014        -0.579215
 H         1.396422        -2.175500        -0.650934
 H         2.060363        -2.120561         1.090166
 H         1.839974         1.140292        -2.369879
