19
Iteration:   627charge 0 multiplicity 1
 C        -0.056537         0.383110        -0.337770
 C         1.372945        -0.075286         0.129568
 C         2.113976         0.767677         1.206334
 C         3.415314         0.561209         0.329728
 C         3.268778        -0.975288        -0.348848
 O         4.412630        -1.554553        -0.825048
 C         1.961466        -1.495268         0.227456
 C         2.569275         0.239807        -0.868634
 O         2.441076         1.057410        -2.044920
 H        -0.684268         0.497355         0.472831
 H        -0.098066         1.408844        -0.790553
 H        -0.635879        -0.301134        -1.098834
 H         1.789993         1.856001         1.287807
 H         2.290917         0.304065         2.189292
 H         4.365498         1.058738         0.354238
 H         4.880155        -1.815672         0.133850
 H         1.464275        -2.271848        -0.463081
 H         1.910252        -2.027048         1.153143
 H         2.049949         0.404592        -2.680460
