19
Iteration:  1979charge 0 multiplicity 1
 C        -0.104829         0.099444        -0.317978
 C         1.334795        -0.047524         0.040091
 C         2.104714         0.679539         1.376213
 C         3.353406         0.522575         0.396382
 C         3.270791        -0.866968        -0.325524
 O         4.310479        -1.578001        -0.792610
 C         1.930854        -1.428993         0.045511
 C         2.579991         0.453629        -0.867670
 O         2.673222         1.091330        -2.053784
 H        -0.790308        -0.476814         0.313874
 H        -0.401000         1.180968        -0.536933
 H        -0.135984        -0.283002        -1.320445
 H         1.716344         1.765888         1.543963
 H         2.109535         0.091829         2.312842
 H         4.297451         0.972771         0.465213
 H         4.021379        -2.355024        -1.071970
 H         1.567769        -2.097836        -0.727177
 H         1.888764        -1.962582         1.008217
 H         3.086646         2.043050        -1.913052
