19
Iteration:  2278
 C        -0.104073         0.291913        -0.273694
 C         1.297636        -0.128509         0.098370
 C         1.987195         0.706525         1.154104
 C         3.272281         0.512756         0.455262
 C         3.250892        -0.904796        -0.326714
 O         4.412391        -1.527726        -0.914810
 C         1.922470        -1.554079         0.074691
 C         2.569171         0.329312        -0.805963
 O         2.705214         1.033966        -1.952782
 H        -0.864023         0.187540         0.549122
 H        -0.047388         1.241813        -0.535699
 H        -0.465103        -0.197899        -1.184114
 H         1.720022         1.786305         1.184445
 H         1.969002         0.351128         2.185543
 H         4.168942         1.046689         0.468850
 H         5.194202        -1.021306        -0.994362
 H         1.622755        -2.047083        -0.851462
 H         1.784492        -2.110978         1.024314
 H         3.418988         1.645217        -1.781544
