19
Iteration:   208
 C         0.015679         0.327649        -0.256030
 C         1.379859        -0.056802         0.156398
 C         2.164411         0.779456         1.200990
 C         3.370112         0.509911         0.362422
 C         3.188330        -0.925748        -0.368081
 O         4.340498        -1.562734        -0.786330
 C         1.953362        -1.523124         0.149919
 C         2.510962         0.329995        -0.885748
 O         2.438170         0.983497        -2.119851
 H        -0.618011         0.843570         0.604125
 H         0.167383         1.119615        -1.011656
 H        -0.533075        -0.444086        -0.741717
 H         1.941256         1.858153         1.068246
 H         2.174138         0.459423         2.326703
 H         4.345540         1.003650         0.566796
 H         5.010649        -1.613086        -0.021849
 H         1.420329        -2.129923        -0.606280
 H         2.009179        -2.143296         1.049268
 H         3.351330         1.041458        -2.363134
