19
Iteration:  2451charge 0 multiplicity 1
 C        -0.048667         0.193058        -0.362889
 C         1.378101        -0.027293         0.063392
 C         1.964199         0.662614         1.308856
 C         3.298592         0.508200         0.600676
 C         3.237696        -0.832832        -0.325490
 O         4.326374        -1.619149        -0.848287
 C         1.962463        -1.440729         0.060540
 C         2.774091         0.458327        -0.814475
 O         2.577195         1.025936        -2.102179
 H        -0.616518        -0.437044         0.218217
 H        -0.421424         1.220146        -0.047926
 H        -0.285817        -0.023753        -1.366595
 H         1.585744         1.716483         1.291735
 H         1.789584         0.021873         2.175748
 H         4.240308         0.975941         0.859202
 H         4.286070        -1.752205        -1.834913
 H         1.412236        -2.099456        -0.535565
 H         2.078040        -1.889214         1.053130
 H         3.411436         1.531148        -2.274155
