19
Iteration:  4956charge 0 multiplicity 1
 C        -0.002851         0.184965        -0.368079
 C         1.382646         0.029718         0.075589
 C         2.134743         0.649761         1.262915
 C         3.388371         0.579539         0.444195
 C         3.207812        -0.889351        -0.345411
 O         4.288430        -1.660498        -0.635454
 C         1.852304        -1.413217         0.000721
 C         2.634597         0.367936        -0.852697
 O         2.622247         1.031671        -2.068600
 H        -0.854980        -0.534219         0.166508
 H        -0.465674         1.153497        -0.132345
 H        -0.141041        -0.092989        -1.433357
 H         1.915334         1.757712         1.288229
 H         2.048461         0.300731         2.332024
 H         4.362999         1.022538         0.593536
 H         4.240224        -1.778884        -1.575540
 H         1.417295        -1.769836        -0.984229
 H         1.733139        -2.012702         0.979380
 H         2.739914         1.926311        -1.872497
