19
Iteration:  1926charge 0 multiplicity 1
 C        -0.082109         0.359532        -0.208687
 C         1.311730        -0.083017         0.031353
 C         1.982044         0.677856         1.193782
 C         3.324093         0.415226         0.489251
 C         3.269868        -0.888761        -0.347201
 O         4.483024        -1.436713        -0.754780
 C         1.928597        -1.581508         0.026484
 C         2.583211         0.321410        -0.857269
 O         2.587027         1.050650        -2.040965
 H        -0.588715         0.103079         0.806278
 H        -0.148485         1.385968        -0.483353
 H        -0.689352        -0.205222        -0.943097
 H         1.743732         1.717064         1.187852
 H         1.763232         0.426266         2.191731
 H         4.193222         0.862380         0.848718
 H         4.694264        -1.355796        -1.658844
 H         1.527974        -2.072824        -0.818400
 H         1.790097        -2.280198         0.815688
 H         3.518624         0.977090        -2.445893
