19
Iteration:  4891charge 0 multiplicity 1
 C        -0.169361         0.356928        -0.132530
 C         1.297768        -0.048389        -0.026992
 C         2.015357         0.573844         1.230973
 C         3.302533         0.488267         0.368954
 C         3.184341        -0.863351        -0.316250
 O         4.415529        -1.454267        -0.679375
 C         1.858127        -1.577205         0.032889
 C         2.547463         0.375257        -0.919883
 O         2.905546         0.988486        -2.109297
 H        -0.636616         0.119684         0.870355
 H        -0.137370         1.418394        -0.131755
 H        -0.681361         0.027570        -0.987416
 H         1.725317         1.672314         1.144498
 H         1.951837        -0.014560         2.200486
 H         4.246199         0.903727         0.652715
 H         4.401048        -1.929346        -1.492423
 H         1.447796        -2.124673        -0.883284
 H         1.850278        -2.131810         1.034026
 H         3.003760         1.873661        -1.939771
