19
Iteration:  2027
 C        -0.100176         0.250267        -0.272946
 C         1.339566        -0.003616        -0.017097
 C         2.106127         0.639346         1.237388
 C         3.344612         0.406288         0.428256
 C         3.240908        -0.920484        -0.349455
 O         4.451998        -1.545374        -0.656316
 C         1.862009        -1.508056         0.060398
 C         2.602362         0.389567        -0.899813
 O         2.661513         1.157376        -2.047731
 H        -0.530108        -0.621212         0.438547
 H        -0.375918         1.173577         0.149698
 H        -0.577593         0.276992        -1.319589
 H         1.928019         1.695935         1.056691
 H         1.972777         0.247827         2.283070
 H         4.390514         0.899505         0.499052
 H         4.409150        -1.621720        -1.657125
 H         1.420372        -2.054136        -0.756341
 H         1.829851        -1.944786         1.053009
 H         1.718541         1.148387        -2.021927
