19
Iteration:   700charge 0 multiplicity 1
 C        -0.185429         0.053054        -0.043746
 C         1.328530         0.033581         0.044740
 C         2.173047         0.761403         1.192825
 C         3.393751         0.538702         0.347253
 C         3.226115        -0.768822        -0.290533
 O         4.270254        -1.616543        -0.839517
 C         1.852812        -1.336612         0.188923
 C         2.551027         0.348907        -1.008572
 O         2.796679         1.028519        -2.134837
 H        -0.666792        -0.540838         0.836755
 H        -0.644514         1.017289         0.025255
 H        -0.596737        -0.372639        -0.950352
 H         1.798432         1.800718         1.193475
 H         2.104064         0.208236         2.121025
 H         4.280033         1.055553         0.159144
 H         5.073593        -1.732652        -0.125072
 H         1.506716        -1.999036        -0.524666
 H         1.677206        -1.938304         1.141607
 H         3.054947         0.385955        -2.770824
