19
Iteration:  3453charge 0 multiplicity 1
 C        -0.102481         0.204293        -0.223197
 C         1.357000         0.040513         0.077754
 C         2.070798         0.638755         1.274483
 C         3.357096         0.498023         0.551627
 C         3.256221        -0.796455        -0.276706
 O         4.200500        -1.540087        -0.894329
 C         1.913548        -1.420695         0.048986
 C         2.598944         0.468683        -0.816338
 O         2.842277         0.801237        -2.144950
 H        -0.790267        -0.093699         0.568665
 H        -0.358203         1.230726        -0.434499
 H        -0.253530        -0.395669        -1.128613
 H         1.692657         1.762100         1.507312
 H         1.722440         0.113607         2.196350
 H         4.313690         0.955134         0.778999
 H         4.484527        -1.048238        -1.657324
 H         1.503892        -1.956450        -0.820780
 H         1.699985        -2.023763         0.980899
 H         2.629279         1.700033        -2.305454
