19
Iteration:  1217
 C        -0.050384         0.006812        -0.204314
 C         1.371742         0.062152         0.104277
 C         2.127447         0.747569         1.175255
 C         3.385490         0.527322         0.312354
 C         3.275862        -0.843182        -0.332950
 O         4.455210        -1.619109        -0.578559
 C         1.926703        -1.428779         0.132410
 C         2.607345         0.410684        -0.965868
 O         2.350319         1.071501        -2.131524
 H        -0.608652        -0.370012         0.652213
 H        -0.481645         1.054876        -0.479188
 H        -0.283467        -0.738871        -1.090360
 H         1.930314         1.833197         1.271840
 H         2.158729         0.363726         2.213641
 H         4.302289         1.244182         0.419259
 H         4.711718        -1.918838        -1.543386
 H         1.441898        -2.045517        -0.599191
 H         1.889283        -1.972627         1.083903
 H         3.049159         1.551868        -2.518143
