19
Iteration:  4656
 C        -0.099613         0.269213        -0.437581
 C         1.326230        -0.030624         0.131736
 C         2.109764         0.701572         1.275173
 C         3.351561         0.423909         0.457774
 C         3.204591        -0.937968        -0.229137
 O         4.345733        -1.425277        -0.832317
 C         1.902598        -1.496524         0.100948
 C         2.599234         0.272357        -0.882295
 O         2.791210         1.085608        -1.938074
 H        -0.812042         0.424519         0.277750
 H        -0.267504         1.103237        -1.055231
 H        -0.382318        -0.587028        -1.013441
 H         1.713401         1.707332         1.171022
 H         1.813062         0.175531         2.315821
 H         4.323084         0.922219         0.444565
 H         4.030551        -1.868214        -1.728377
 H         1.622068        -2.008265        -0.791494
 H         1.643209        -1.946106         1.090420
 H         2.142565         1.122255        -2.672214
