19
Iteration:  1873
 C        -0.078382         0.242718        -0.329344
 C         1.299442         0.027711         0.117152
 C         2.122712         0.512560         1.355302
 C         3.417274         0.462967         0.440729
 C         3.210193        -0.828479        -0.333656
 O         4.404416        -1.427953        -0.664908
 C         1.887725        -1.462334        -0.013673
 C         2.615664         0.442126        -0.864781
 O         2.540647         1.004510        -2.162666
 H        -0.972097        -0.216674         0.313083
 H        -0.241613         1.235062        -0.463090
 H        -0.095461        -0.302954        -1.318509
 H         1.818530         1.472708         1.698096
 H         2.068929        -0.246737         2.223076
 H         4.379130         0.755993         0.627929
 H         4.310260        -2.197685        -1.397892
 H         1.297564        -1.990890        -0.821157
 H         1.918608        -1.895155         1.037510
 H         3.431597         1.433932        -2.417633
