19
Iteration:  1924charge 0 multiplicity 1
 C        -0.087025         0.364532        -0.197210
 C         1.316676        -0.093868         0.024176
 C         1.974828         0.669141         1.195714
 C         3.317246         0.419329         0.476787
 C         3.275933        -0.887154        -0.335194
 O         4.474569        -1.443644        -0.759228
 C         1.932144        -1.585303         0.024111
 C         2.603981         0.329393        -0.852786
 O         2.578476         1.043065        -2.038359
 H        -0.596577         0.152125         0.734869
 H        -0.190173         1.488111        -0.469082
 H        -0.628728        -0.228432        -0.905931
 H         1.723566         1.771659         1.129295
 H         1.765523         0.403395         2.216079
 H         4.212422         0.943212         0.906386
 H         4.710314        -1.358285        -1.616914
 H         1.581239        -2.003693        -0.911712
 H         1.802592        -2.297138         0.819183
 H         3.499545         0.972890        -2.466193
