19
Iteration:  1972charge 0 multiplicity 1
 C        -0.109207         0.115392        -0.333253
 C         1.334903        -0.006102         0.045742
 C         2.136018         0.649030         1.325913
 C         3.374078         0.500186         0.396660
 C         3.195520        -0.817562        -0.302020
 O         4.365921        -1.528675        -0.801156
 C         1.908343        -1.459189         0.092999
 C         2.546076         0.402172        -0.864994
 O         2.682273         1.110584        -2.081264
 H        -0.925292        -0.416877         0.342607
 H        -0.360020         1.108264        -0.528876
 H        -0.263034        -0.407550        -1.341744
 H         1.796584         1.570514         1.698729
 H         2.081927         0.083938         2.250633
 H         4.358154         0.919294         0.542345
 H         4.058867        -2.375877        -1.107096
 H         1.406105        -2.105619        -0.627414
 H         1.878274        -2.026303         1.021838
 H         3.306127         1.771840        -1.771734
