19
Iteration:  2417charge 0 multiplicity 1
 C        -0.105548         0.219807        -0.391888
 C         1.282198        -0.050131         0.082918
 C         2.189387         0.599173         1.257762
 C         3.347513         0.489429         0.398262
 C         3.289437        -0.886907        -0.292185
 O         4.421309        -1.553451        -0.650203
 C         1.836336        -1.501306         0.002722
 C         2.512785         0.413771        -0.826777
 O         2.623523         1.095885        -2.037378
 H        -0.700676        -0.462150         0.090147
 H        -0.434723         1.235244         0.000262
 H        -0.252242         0.251855        -1.430032
 H         1.805575         1.600579         1.522576
 H         2.311033         0.132449         2.274938
 H         4.164939         1.081100         0.232402
 H         4.287815        -1.563767        -1.743614
 H         1.419503        -2.009953        -0.825371
 H         1.783980        -2.072405         0.940442
 H         3.406529         1.747992        -2.123347
