19
Iteration:  3533
 C        -0.078352         0.286337        -0.224024
 C         1.325429        -0.038918         0.098760
 C         2.092558         0.637799         1.231132
 C         3.404441         0.500435         0.396958
 C         3.259687        -0.885765        -0.375386
 O         4.382049        -1.613229        -0.627855
 C         1.858375        -1.505292         0.023740
 C         2.626089         0.415349        -0.894642
 O         2.583108         1.107937        -2.118969
 H        -0.712949        -0.102888         0.542267
 H        -0.103500         1.371005        -0.384357
 H        -0.320758        -0.178637        -1.287348
 H         1.673515         1.702692         1.169870
 H         2.001978         0.005964         2.159736
 H         4.403070         0.993279         0.543740
 H         4.125033        -2.272436        -1.184489
 H         1.451349        -2.057446        -0.839578
 H         1.840893        -2.170404         0.939650
 H         3.075805         1.904661        -2.087205
