19
Iteration:   751charge 0 multiplicity 1
 C        -0.101471         0.319863        -0.094241
 C         1.318749         0.008550         0.111621
 C         2.021257         0.726011         1.243343
 C         3.379138         0.497842         0.453967
 C         3.213509        -0.864976        -0.292219
 O         4.346714        -1.357540        -0.926437
 C         1.954485        -1.471232         0.159057
 C         2.565766         0.384650        -0.909085
 O         2.722695         0.787172        -2.193198
 H        -0.796297        -0.310620         0.545150
 H        -0.339301         1.395954        -0.062693
 H        -0.426240        -0.041270        -1.054407
 H         1.795949         1.761692         1.142091
 H         1.931806         0.316412         2.303156
 H         4.198423         1.136676         0.547859
 H         4.781302        -2.016185        -0.533212
 H         1.485031        -2.173657        -0.642709
 H         2.102718        -2.057153         1.090650
 H         2.676271        -0.056233        -2.801825
