19
Iteration:  2100
 C        -0.157486         0.256709        -0.218641
 C         1.369048         0.015677        -0.032651
 C         2.004902         0.609813         1.278093
 C         3.364184         0.485594         0.624929
 C         3.262011        -0.844589        -0.252362
 O         4.388104        -1.475050        -0.940131
 C         1.926922        -1.457379        -0.054202
 C         2.702553         0.477371        -0.794059
 O         2.603992         0.937813        -2.061291
 H        -0.658451         0.209497         0.760638
 H        -0.384243         1.266311        -0.610125
 H        -0.644110        -0.435054        -0.877869
 H         1.835655         1.727584         1.335273
 H         1.933300        -0.009525         2.164088
 H         4.355535         1.022071         0.926024
 H         4.209586        -2.512668        -1.009467
 H         1.480365        -1.822904        -0.980622
 H         1.703678        -2.026901         0.918244
 H         3.367282         0.696604        -2.522696
