19
Iteration:  1370charge 0 multiplicity 1
 C        -0.114841         0.245824        -0.174838
 C         1.299609        -0.081137         0.068284
 C         2.015101         0.684409         1.247870
 C         3.366098         0.579571         0.413387
 C         3.251271        -0.862578        -0.284058
 O         4.465765        -1.335265        -0.829318
 C         1.969026        -1.565724         0.166263
 C         2.552495         0.342887        -0.864171
 O         2.662613         0.835447        -2.193882
 H        -0.648037         0.060908         0.674774
 H        -0.229190         1.355669        -0.372452
 H        -0.611426        -0.165451        -1.107727
 H         1.735347         1.718393         1.347491
 H         2.002120         0.226047         2.259433
 H         4.292672         1.054942         0.419719
 H         4.285679        -1.799194        -1.573632
 H         1.573203        -2.191778        -0.656624
 H         1.874319        -2.062329         1.179311
 H         2.349966         1.706409        -1.978868
