19
Iteration:  1662
 C        -0.061536         0.103124        -0.340437
 C         1.398941         0.019599         0.109348
 C         2.132128         0.700480         1.323105
 C         3.422120         0.543455         0.441364
 C         3.211990        -0.821623        -0.347441
 O         4.337075        -1.627241        -0.686005
 C         1.899314        -1.486086         0.004546
 C         2.620833         0.443936        -0.858065
 O         2.536585         1.044839        -2.108197
 H        -0.811169        -0.488583         0.244532
 H        -0.441299         1.045952        -0.531547
 H        -0.057200        -0.450718        -1.225218
 H         1.617663         1.656222         1.548478
 H         2.126802        -0.007758         2.171351
 H         4.551152         0.764828         0.621062
 H         4.521369        -1.364162        -1.512229
 H         1.420387        -1.895709        -0.865849
 H         1.662807        -1.912431         1.004282
 H         2.680911         1.964662        -2.034765
