19
Iteration:  2354
 C        -0.172764         0.319499        -0.241876
 C         1.323267        -0.089440         0.046439
 C         2.009984         0.579738         1.267288
 C         3.353562         0.564005         0.461383
 C         3.275453        -0.823966        -0.257533
 O         4.423257        -1.568114        -0.753405
 C         1.954424        -1.500901        -0.039293
 C         2.573015         0.358072        -0.901342
 O         2.783435         1.062666        -2.034278
 H        -0.821163         0.153131         0.720625
 H        -0.295741         1.469999        -0.565055
 H        -0.657460        -0.315890        -1.040861
 H         1.623116         1.592846         1.540010
 H         2.141190        -0.046808         2.083944
 H         4.207208         1.081139         0.750486
 H         4.008537        -2.185142        -1.578716
 H         1.596715        -1.831010        -1.005865
 H         1.851113        -2.293898         0.720905
 H         1.988023         1.608897        -2.340396
