19
Iteration:  1379
 C        -0.121190         0.278299        -0.161846
 C         1.349237        -0.104341         0.135778
 C         2.041544         0.713828         1.177347
 C         3.289985         0.562183         0.376512
 C         3.230087        -0.850181        -0.340962
 O         4.479502        -1.344514        -0.828956
 C         1.944894        -1.553345         0.158529
 C         2.584179         0.288126        -0.884499
 O         2.658586         0.901509        -2.138721
 H        -0.752003        -0.109406         0.644492
 H        -0.373611         1.288629        -0.313534
 H        -0.427969        -0.284627        -1.033398
 H         1.530359         1.621913         1.134032
 H         2.041463         0.346929         2.263239
 H         4.333595         0.886892         0.543634
 H         4.471865        -2.147082        -1.181098
 H         1.533519        -2.265538        -0.567488
 H         1.983777        -2.034602         1.193854
 H         2.368114         1.802157        -2.040494
