19
Iteration:   583charge 0 multiplicity 1
 C        -0.148203         0.267130        -0.233898
 C         1.332346         0.039891         0.029507
 C         2.219988         0.699344         1.276786
 C         3.418073         0.567057         0.381436
 C         3.264306        -0.841523        -0.246524
 O         4.306203        -1.526716        -0.871144
 C         1.891106        -1.431412         0.190793
 C         2.598560         0.358604        -0.866482
 O         2.530975         0.866062        -2.124481
 H        -0.767918         0.106542         0.578263
 H        -0.210189         1.345323        -0.495109
 H        -0.547943        -0.309427        -1.164020
 H         2.034528         1.770329         1.435891
 H         2.169956         0.085474         2.160378
 H         4.375442         0.973755         0.500606
 H         5.217022        -1.550839        -0.276663
 H         1.412426        -2.036036        -0.645099
 H         1.755284        -2.117391         0.987958
 H         2.979283         0.425294        -2.838507
