19
Iteration:  2140charge 0 multiplicity 1
 C        -0.107852         0.204193        -0.280617
 C         1.319269        -0.039343         0.083412
 C         2.130044         0.658910         1.260995
 C         3.349756         0.453211         0.457336
 C         3.200365        -0.940547        -0.334048
 O         4.271741        -1.449757        -0.928999
 C         1.833207        -1.559904         0.095544
 C         2.557191         0.415706        -0.822930
 O         2.759897         1.096319        -2.026841
 H        -0.754847         0.190455         0.576228
 H        -0.064926         1.291176        -0.754966
 H        -0.527064        -0.313356        -1.142346
 H         1.842252         1.674911         1.464316
 H         2.110942         0.097296         2.216888
 H         4.276853         0.891187         0.608790
 H         5.048134        -1.085753        -0.401652
 H         1.425340        -2.167457        -0.766380
 H         1.782540        -2.058576         1.051122
 H         3.697578         0.859807        -2.382745
