19
Iteration:  3441
 C        -0.128330         0.242635        -0.205102
 C         1.327756         0.072626        -0.010662
 C         1.978656         0.590663         1.284168
 C         3.389662         0.527358         0.552792
 C         3.263664        -0.818982        -0.223997
 O         4.349699        -1.632828        -0.916548
 C         1.858738        -1.371830         0.049631
 C         2.583989         0.565938        -0.803742
 O         2.785766         0.769235        -2.158183
 H        -0.544890        -0.329173         0.650435
 H        -0.471324         1.263308        -0.212919
 H        -0.515731        -0.197439        -1.078947
 H         1.871665         1.807111         1.431641
 H         2.082831        -0.065750         2.201768
 H         4.237620         0.990958         1.099908
 H         4.597370        -1.154003        -1.691726
 H         1.522290        -1.975411        -0.840588
 H         1.786746        -1.978474         0.992909
 H         2.715662         1.773964        -2.381383
