19
Iteration:  2128
 C        -0.093024         0.198673        -0.270722
 C         1.347413        -0.015597         0.135668
 C         2.067361         0.676524         1.307577
 C         3.343481         0.455723         0.476375
 C         3.143629        -0.857779        -0.301187
 O         4.292402        -1.434465        -0.971115
 C         1.890805        -1.489410        -0.015056
 C         2.631093         0.380796        -0.810517
 O         2.726776         1.007539        -2.031744
 H        -0.864852         0.218370         0.548059
 H        -0.227221         1.255996        -0.743823
 H        -0.342311        -0.675553        -0.909338
 H         1.868844         1.736810         1.262255
 H         2.045352         0.267890         2.343631
 H         4.306403         0.723395         0.656660
 H         5.065234        -1.753721        -0.305732
 H         1.269128        -1.784670        -0.903204
 H         1.688861        -2.206847         0.760727
 H         3.643935         0.897242        -2.237751
