19
Iteration:   197charge 0 multiplicity 1
 C        -0.096415         0.311444        -0.222613
 C         1.327457        -0.041700         0.107277
 C         2.163301         0.756579         1.195371
 C         3.432833         0.533040         0.373721
 C         3.239246        -0.835665        -0.355563
 O         4.346023        -1.557858        -0.851780
 C         1.891197        -1.501018         0.157400
 C         2.539971         0.302099        -0.863038
 O         2.532113         0.919386        -2.088511
 H        -0.664693         0.720223         0.781226
 H        -0.135707         1.097184        -1.005567
 H        -0.679295        -0.511337        -0.533086
 H         1.890293         1.835798         1.238130
 H         2.039258         0.394396         2.319354
 H         4.434738         0.946835         0.088554
 H         4.960267        -1.576032         0.103145
 H         1.575285        -2.110033        -0.705685
 H         1.805199        -1.955682         1.151443
 H         3.478831         1.100081        -2.415039
