19
Iteration:   256charge 0 multiplicity 1
 C        -0.066297         0.363129        -0.359673
 C         1.358724         0.023844         0.122237
 C         2.186836         0.716967         1.240233
 C         3.437422         0.543797         0.333797
 C         3.295609        -0.870282        -0.310685
 O         4.368177        -1.665648        -0.746186
 C         1.984763        -1.444044         0.173584
 C         2.589984         0.339154        -0.875582
 O         2.301655         0.983864        -2.065960
 H        -0.773583        -0.116135         0.224566
 H        -0.338999         1.420234        -0.413261
 H        -0.112665        -0.118670        -1.429241
 H         1.931146         1.733485         1.268313
 H         2.260462         0.315090         2.187938
 H         4.476791         0.826229         0.221076
 H         4.707986        -2.117111        -0.046576
 H         1.440927        -2.090187        -0.592598
 H         1.932117        -1.967424         1.103081
 H         3.037379         0.982378        -2.716995
