19
Iteration:  2998charge 0 multiplicity 1
 C        -0.103938         0.140969        -0.265901
 C         1.351486         0.089077        -0.014880
 C         2.030119         0.662366         1.286782
 C         3.376445         0.594416         0.533178
 C         3.285411        -0.827520        -0.278329
 O         4.295053        -1.676760        -0.809681
 C         1.899714        -1.337102         0.045534
 C         2.703992         0.470649        -0.839820
 O         2.642847         0.877324        -2.138865
 H        -0.480607        -0.563670         0.505091
 H        -0.603678         1.122007        -0.017533
 H        -0.537369        -0.090562        -1.175805
 H         1.659487         1.667271         1.686689
 H         1.825743        -0.061287         2.231339
 H         4.345590         0.766810         0.899709
 H         4.542388        -1.377813        -1.765719
 H         1.570479        -1.952524        -0.786829
 H         1.766162        -1.887173         1.000953
 H         3.123505         1.678979        -2.306284
