19
Iteration:  4826
 C        -0.116590         0.253983        -0.442337
 C         1.354510         0.016872         0.078313
 C         2.068711         0.664240         1.321745
 C         3.401682         0.506849         0.568127
 C         3.210370        -0.847972        -0.324046
 O         4.257837        -1.532811        -0.870968
 C         1.918628        -1.474938         0.125749
 C         2.662955         0.389140        -0.740963
 O         2.786245         0.917094        -2.080335
 H        -0.865672         0.102147         0.339313
 H        -0.204383         1.201199        -0.915088
 H        -0.430850        -0.382169        -1.228396
 H         1.799399         1.811022         1.331284
 H         1.783821        -0.028776         2.179612
 H         4.411441         0.637654         0.893564
 H         4.177466        -1.117108        -1.806227
 H         1.455307        -2.041140        -0.709819
 H         1.702669        -2.128105         0.950582
 H         2.208975         1.723356        -2.149701
