19
Iteration:  1803charge 0 multiplicity 1
 C        -0.149335         0.138934        -0.264271
 C         1.348173        -0.053834         0.017265
 C         2.021890         0.743171         1.191664
 C         3.360614         0.527407         0.428174
 C         3.268720        -0.889191        -0.319823
 O         4.289754        -1.738227        -0.741170
 C         1.970903        -1.523623         0.088638
 C         2.619810         0.412225        -0.846214
 O         2.734221         1.193758        -2.063720
 H        -0.721906        -0.536983         0.388921
 H        -0.485732         1.214393         0.070423
 H        -0.443589        -0.176650        -1.241739
 H         1.783195         1.834720         1.118128
 H         1.859112         0.278970         2.132438
 H         4.432133         1.061059         0.609278
 H         4.609452        -1.193530        -1.632676
 H         1.776562        -2.253290        -0.635459
 H         1.995170        -1.781308         1.103170
 H         2.261851         2.023945        -1.882000
