19
Iteration:  3552charge 0 multiplicity 1
 C        -0.081668         0.270282        -0.244483
 C         1.343268         0.016406         0.006528
 C         2.175756         0.650172         1.337758
 C         3.333344         0.490721         0.318212
 C         3.237558        -0.882367        -0.377707
 O         4.421382        -1.655405        -0.488497
 C         1.903986        -1.443249        -0.109321
 C         2.517585         0.366237        -0.913755
 O         2.546928         1.102098        -2.103905
 H        -0.672548        -0.169755         0.544548
 H        -0.355853         1.292006        -0.175976
 H        -0.217067        -0.005294        -1.177409
 H         2.091746         1.806094         1.458857
 H         2.491193         0.028905         2.193248
 H         4.358861         0.838522         0.376989
 H         4.235016        -2.302914        -1.145331
 H         1.573689        -1.939767        -1.025321
 H         1.696932        -2.195030         0.700934
 H         2.878305         1.910975        -1.777881
