19
Iteration:  2541
 C        -0.172042         0.315166        -0.186006
 C         1.365480        -0.048520        -0.097893
 C         2.005613         0.587168         1.205981
 C         3.412949         0.445171         0.527603
 C         3.271359        -0.805476        -0.323590
 O         4.445049        -1.574769        -0.633630
 C         1.902121        -1.473621        -0.028784
 C         2.650439         0.460740        -0.868898
 O         2.652295         1.031498        -2.142345
 H        -0.533754         0.158424         0.785788
 H        -0.485098         1.321439        -0.419058
 H        -0.657132        -0.429625        -0.859567
 H         1.659148         1.674688         1.392585
 H         1.912518        -0.165908         2.009309
 H         4.436071         0.786556         0.872907
 H         4.128600        -1.939767        -1.428693
 H         1.733908        -2.276485        -0.743632
 H         1.824583        -1.936883         0.929163
 H         1.940639         1.763931        -2.168659
