19
Iteration:  2220
 C        -0.147656         0.151654        -0.326979
 C         1.382989         0.098233         0.018642
 C         2.150463         0.626233         1.314060
 C         3.413619         0.429223         0.465581
 C         3.272961        -0.839859        -0.405076
 O         4.363244        -1.708647        -0.600686
 C         1.877415        -1.427138        -0.086365
 C         2.642196         0.426597        -0.856431
 O         2.537361         1.145138        -2.095520
 H        -0.590040        -0.594890         0.278524
 H        -0.729188         1.067794        -0.014784
 H        -0.307152        -0.177073        -1.340906
 H         1.976742         1.701238         1.480276
 H         2.100353         0.018608         2.171995
 H         4.541481         0.755967         0.427357
 H         5.272018        -1.253249        -0.421672
 H         1.476877        -1.861206        -0.985388
 H         1.582346        -2.113651         0.727401
 H         1.899252         1.920963        -1.967914
