19
Iteration:  1892
 C        -0.051483         0.297586        -0.306583
 C         1.370655        -0.046655        -0.019212
 C         2.044554         0.563586         1.360389
 C         3.351916         0.579192         0.486890
 C         3.300998        -0.803314        -0.307294
 O         4.414008        -1.542111        -0.696715
 C         1.913331        -1.477127        -0.056637
 C         2.573472         0.442654        -0.825450
 O         2.503991         0.945937        -2.100927
 H        -0.563555         0.081592         0.696763
 H        -0.284267         1.388842        -0.384809
 H        -0.519031        -0.289869        -1.071640
 H         1.724682         1.555717         1.646792
 H         2.121258        -0.166921         2.083715
 H         4.288190         1.065842         0.920440
 H         4.409949        -1.851856        -1.735089
 H         1.689461        -1.802655        -1.017810
 H         1.710544        -2.180049         0.706957
 H         3.424449         1.098275        -2.366832
