19
Iteration:  1463
 C        -0.137565         0.066444        -0.244982
 C         1.358042        -0.059170         0.137130
 C         2.126801         0.746208         1.171044
 C         3.343398         0.537419         0.401461
 C         3.267568        -0.835699        -0.375335
 O         4.440416        -1.576254        -0.656772
 C         1.991648        -1.477329         0.119063
 C         2.550612         0.391378        -0.937556
 O         2.510816         1.092572        -2.121809
 H        -0.867677        -0.364485         0.602658
 H        -0.401964         1.157176        -0.289531
 H        -0.389247        -0.314877        -1.259378
 H         1.823839         1.865015         1.250159
 H         1.991148         0.293077         2.150130
 H         4.417536         0.908014         0.568714
 H         4.179820        -1.976330        -1.474360
 H         1.547350        -2.115670        -0.645545
 H         2.071434        -2.006684         1.054327
 H         3.136940         1.892445        -2.051080
