19
Iteration:  4520charge 0 multiplicity 1
 C        -0.153067         0.228358        -0.325910
 C         1.318508        -0.003739         0.092724
 C         2.037263         0.681412         1.279701
 C         3.339027         0.639594         0.444382
 C         3.252344        -0.858480        -0.250369
 O         4.358000        -1.532998        -0.880698
 C         1.934390        -1.411842         0.063177
 C         2.585187         0.308575        -0.852587
 O         2.777626         0.985098        -1.975853
 H        -0.793093        -0.568373         0.094051
 H        -0.566301         1.266379        -0.005105
 H        -0.150406         0.205635        -1.414144
 H         1.630855         1.761182         1.146750
 H         2.125499        -0.001083         2.259735
 H         4.308856         1.022653         0.690493
 H         4.080373        -2.549232        -1.022898
 H         1.565927        -2.011539        -0.878364
 H         1.987379        -1.949804         1.040106
 H         2.619683         0.623679        -2.915240
