19
Iteration:  2136charge 0 multiplicity 1
 C        -0.096870         0.196012        -0.280479
 C         1.327466        -0.018224         0.107044
 C         2.126777         0.662861         1.248214
 C         3.314984         0.448563         0.461354
 C         3.183221        -0.934602        -0.322964
 O         4.265582        -1.440828        -0.939179
 C         1.870223        -1.541997         0.050581
 C         2.590786         0.418200        -0.805923
 O         2.754871         1.069538        -2.033580
 H        -0.853311         0.221892         0.627919
 H        -0.030649         1.143969        -0.713797
 H        -0.524412        -0.405584        -1.145741
 H         1.834327         1.706354         1.488311
 H         2.138472         0.200055         2.284429
 H         4.342174         0.861980         0.621769
 H         5.075113        -1.225446        -0.364527
 H         1.325689        -2.042197        -0.761888
 H         1.666222        -2.142446         1.002349
 H         3.628376         0.884704        -2.278772
