19
Iteration:  3437charge 0 multiplicity 1
 C        -0.173498         0.253333        -0.205623
 C         1.307064         0.058377        -0.017900
 C         1.984739         0.611251         1.302607
 C         3.380929         0.526285         0.544702
 C         3.267426        -0.809719        -0.235985
 O         4.376795        -1.642735        -0.892276
 C         1.868436        -1.365322         0.035486
 C         2.630766         0.548941        -0.781683
 O         2.763641         0.776665        -2.164805
 H        -0.457808        -0.290279         0.751745
 H        -0.524863         1.315879        -0.044221
 H        -0.495381        -0.101576        -1.204591
 H         1.832095         1.677616         1.372117
 H         2.077613        -0.169632         2.105647
 H         4.298463         0.974624         0.988173
 H         4.618534        -1.097100        -1.790225
 H         1.521495        -2.032007        -0.798157
 H         1.671027        -1.966931         0.926721
 H         2.760727         1.688202        -2.398599
