19
Iteration:  1460
 C        -0.141056         0.053853        -0.220135
 C         1.373160        -0.029219         0.127826
 C         2.111498         0.739150         1.197086
 C         3.338714         0.553110         0.391334
 C         3.279383        -0.828786        -0.385784
 O         4.413032        -1.604485        -0.636673
 C         2.001238        -1.486549         0.105782
 C         2.551434         0.400146        -0.944893
 O         2.503478         1.100608        -2.132655
 H        -0.794348        -0.381912         0.452084
 H        -0.409403         1.167903        -0.279687
 H        -0.344199        -0.405718        -1.262873
 H         1.930361         1.876219         1.228220
 H         1.998597         0.332243         2.176875
 H         4.401459         0.938028         0.587358
 H         4.291923        -1.887879        -1.545550
 H         1.593820        -2.167471        -0.695509
 H         2.081600        -2.023243         1.073798
 H         3.145299         1.823325        -1.980133
