19
Iteration:  4658
 C        -0.084822         0.273833        -0.427341
 C         1.323622        -0.022680         0.113935
 C         2.114404         0.703117         1.283486
 C         3.355569         0.412925         0.456104
 C         3.187842        -0.934635        -0.228874
 O         4.339266        -1.416569        -0.835416
 C         1.908570        -1.513278         0.110078
 C         2.588307         0.281990        -0.884360
 O         2.789802         1.088021        -1.941860
 H        -0.927228         0.361601         0.338041
 H        -0.206264         1.075240        -1.107367
 H        -0.393796        -0.544769        -1.021095
 H         1.691614         1.729418         1.063140
 H         1.888014         0.176217         2.302582
 H         4.311516         0.890410         0.473030
 H         4.050283        -1.889649        -1.589527
 H         1.691950        -2.076113        -0.805949
 H         1.635254        -1.977417         1.048055
 H         2.220160         1.131872        -2.629167
