19
Iteration:  3698charge 0 multiplicity 1
 C        -0.115933         0.323034        -0.181324
 C         1.303498        -0.016568         0.046187
 C         2.028562         0.696767         1.266691
 C         3.288270         0.554825         0.455746
 C         3.234042        -0.875464        -0.268707
 O         4.348368        -1.501975        -0.846120
 C         1.918881        -1.540876        -0.024001
 C         2.554314         0.367668        -0.831183
 O         2.878445         0.846202        -2.043846
 H        -0.785908        -0.015880         0.737397
 H        -0.260728         1.391988        -0.263302
 H        -0.586668        -0.123169        -1.116319
 H         1.706865         1.864192         1.232258
 H         2.038969         0.034141         2.198748
 H         4.255654         0.944370         0.588214
 H         4.403922        -1.261167        -1.788020
 H         1.475752        -2.052823        -0.918753
 H         1.905158        -2.128753         0.946470
 H         2.423965         1.746569        -2.237382
