19
Iteration:  4228charge 0 multiplicity 1
 C        -0.074902         0.296240        -0.222168
 C         1.361025        -0.051659         0.066349
 C         2.101458         0.593869         1.236500
 C         3.309072         0.482902         0.379706
 C         3.161899        -0.867004        -0.405803
 O         4.437671        -1.549524        -0.628129
 C         1.889159        -1.502411        -0.013751
 C         2.570325         0.438392        -0.881447
 O         2.688263         1.025200        -2.125353
 H        -0.575073         0.436762         0.774052
 H        -0.003637         1.189990        -0.733903
 H        -0.541664        -0.291622        -0.954257
 H         1.748010         1.655286         1.605362
 H         2.084467         0.305331         2.316318
 H         4.231962         0.946805         0.682820
 H         4.059647        -2.339049        -0.802998
 H         1.462367        -1.949828        -0.931135
 H         1.854697        -2.165071         0.890052
 H         2.589588         1.943019        -2.010704
