19
Iteration:  2839charge 0 multiplicity 1
 C        -0.112683         0.317418        -0.141398
 C         1.337685        -0.002572         0.009388
 C         2.039725         0.674039         1.159589
 C         3.254129         0.333972         0.483645
 C         3.184983        -0.928669        -0.391685
 O         4.440082        -1.431022        -0.742607
 C         1.866499        -1.557714         0.139689
 C         2.658471         0.406324        -0.895549
 O         2.773765         0.982658        -2.164130
 H        -0.702437        -0.452250         0.456491
 H        -0.358256         1.285323         0.249940
 H        -0.402308         0.156839        -1.235624
 H         1.880296         1.771181         1.248398
 H         1.803082         0.352436         2.158249
 H         4.119029         0.696610         0.931074
 H         4.287832        -1.251924        -1.597769
 H         1.127773        -2.246855        -0.392783
 H         2.109509        -1.938009         1.127305
 H         2.713645         1.910520        -2.111376
