19
Iteration:   519
 C        -0.257260         0.198937         0.012483
 C         1.311863         0.027500         0.032608
 C         2.078805         0.739580         1.152908
 C         3.421939         0.538329         0.381612
 C         3.220115        -0.844897        -0.280980
 O         4.337612        -1.469523        -0.972936
 C         1.841143        -1.419788         0.264862
 C         2.615072         0.378120        -0.908646
 O         2.825504         0.888565        -2.190000
 H        -0.728054        -0.572640         0.566048
 H        -0.538441         1.233739         0.377383
 H        -0.660757         0.160924        -1.078660
 H         2.006516         1.760555         1.156707
 H         1.938657         0.357853         2.178910
 H         4.280725         1.126208         0.476786
 H         4.727873        -2.194979        -0.254743
 H         1.275546        -2.072203        -0.587274
 H         1.884049        -1.958410         1.242923
 H         3.163133         0.079208        -2.647006
