19
Iteration:  1738charge 0 multiplicity 1
 C        -0.120560         0.333655        -0.152268
 C         1.273269        -0.051053         0.049883
 C         2.036383         0.577553         1.231824
 C         3.284280         0.529192         0.493684
 C         3.246742        -0.869378        -0.300438
 O         4.426056        -1.365482        -0.904047
 C         1.890722        -1.498970        -0.023726
 C         2.595551         0.357396        -0.856475
 O         2.723328         0.845715        -2.116590
 H        -0.736762         0.032918         0.737482
 H        -0.196385         1.477252        -0.306793
 H        -0.546244        -0.252228        -0.945250
 H         1.672629         1.639055         1.373098
 H         1.913258         0.137062         2.219838
 H         4.362551         1.033449         0.734799
 H         4.995821        -1.886927        -0.119961
 H         1.709708        -2.100205        -0.928477
 H         1.730299        -2.115226         0.920639
 H         2.963686         1.836360        -1.982518
