19
Iteration:  3874charge 0 multiplicity 1
 C        -0.168243         0.286541        -0.150815
 C         1.300199         0.065377         0.015004
 C         2.022560         0.620374         1.300653
 C         3.309441         0.555425         0.527615
 C         3.232054        -0.835942        -0.277425
 O         4.421002        -1.506051        -0.825512
 C         1.841619        -1.385980         0.005708
 C         2.653913         0.385953        -0.866476
 O         2.865908         0.762232        -2.190001
 H        -0.632452        -0.099051         0.945706
 H        -0.426632         1.351137        -0.146941
 H        -0.616341        -0.191016        -1.067831
 H         1.621576         1.478350         1.665919
 H         1.845499         0.019253         2.139342
 H         4.245709         0.952748         0.954804
 H         4.283713        -1.514729        -1.827642
 H         1.661938        -1.991936        -0.914545
 H         1.491121        -2.013608         0.834650
 H         2.388328         1.632857        -2.293918
