19
Iteration:  3157
 C        -0.046624         0.293338        -0.304800
 C         1.350255        -0.076004         0.063577
 C         1.992086         0.688186         1.174309
 C         3.312070         0.482330         0.412334
 C         3.287458        -0.886122        -0.375771
 O         4.406301        -1.615414        -0.725044
 C         1.933600        -1.475237         0.159942
 C         2.557116         0.304519        -0.907393
 O         2.630011         1.111323        -2.015280
 H        -0.721477         0.058997         0.412807
 H        -0.053767         1.337215        -0.463322
 H        -0.231471        -0.043941        -1.358981
 H         1.819234         1.717165         0.993952
 H         1.989316         0.201708         2.230382
 H         4.169655         1.108413         0.473643
 H         4.212763        -2.174355        -1.568307
 H         1.494205        -2.319565        -0.374346
 H         2.034714        -1.767380         1.185771
 H         2.810422         1.999039        -1.653312
