19
Iteration:   741
 C        -0.129625         0.253512        -0.051363
 C         1.313067        -0.054344         0.133046
 C         1.994251         0.765644         1.238093
 C         3.401404         0.559302         0.442271
 C         3.221466        -0.814442        -0.380040
 O         4.319709        -1.416010        -0.945186
 C         1.958015        -1.464037         0.113349
 C         2.522610         0.360609        -0.871418
 O         2.804990         0.807024        -2.196074
 H        -0.782646        -0.274613         0.758854
 H        -0.288451         1.310075         0.167377
 H        -0.356264         0.087450        -1.045348
 H         1.804121         1.767601         1.094846
 H         1.777511         0.573080         2.310583
 H         4.331379         1.014392         0.600240
 H         4.728921        -1.846634        -0.200891
 H         1.478209        -2.189303        -0.603941
 H         1.865328        -1.894904         1.166416
 H         2.810949        -0.044496        -2.792820
