19
Iteration:  4085charge 0 multiplicity 1
 C        -0.166756         0.275850        -0.131513
 C         1.291667         0.035507         0.076016
 C         2.040424         0.670270         1.246508
 C         3.351924         0.489647         0.507983
 C         3.220115        -0.826059        -0.255153
 O         4.371786        -1.422697        -0.808956
 C         1.854821        -1.481332        -0.045020
 C         2.613567         0.419346        -0.841078
 O         2.882306         0.737485        -2.184337
 H        -0.748909        -0.380908         0.623613
 H        -0.568008         1.274762        -0.003257
 H        -0.489451         0.063169        -1.142457
 H         1.780079         1.699491         1.551057
 H         1.851268         0.291835         2.312194
 H         4.273969         0.986891         0.797857
 H         4.161870        -1.575115        -1.701255
 H         1.571321        -1.794181        -1.062269
 H         1.711855        -2.224097         0.777150
 H         2.669949         1.644994        -2.257247
