19
Iteration:  3239
 C        -0.249552         0.240619        -0.183723
 C         1.325468         0.025718         0.063760
 C         2.107988         0.611916         1.283012
 C         3.392626         0.571680         0.512440
 C         3.274237        -0.779690        -0.236206
 O         4.297663        -1.522828        -0.726592
 C         1.850714        -1.445472        -0.078784
 C         2.651676         0.399118        -0.844655
 O         2.788311         0.782768        -2.238203
 H        -0.884906        -0.253648         0.582035
 H        -0.448500         1.304900        -0.009288
 H        -0.612495        -0.135812        -1.051682
 H         1.734471         1.626474         1.692609
 H         2.158947         0.052924         2.211054
 H         4.364893         1.078921         0.635663
 H         4.856371        -1.011318        -1.459678
 H         1.724059        -1.706050        -1.137905
 H         1.617154        -2.282103         0.647170
 H         2.616203         1.698671        -2.167694
