19
Iteration:  4786charge 0 multiplicity 1
 C        -0.080680         0.381880        -0.350919
 C         1.330839        -0.042765         0.012481
 C         2.048596         0.646271         1.232188
 C         3.345840         0.503112         0.438781
 C         3.183196        -0.928625        -0.299750
 O         4.357170        -1.513115        -0.770524
 C         1.924278        -1.537511         0.150245
 C         2.612418         0.324027        -0.863696
 O         2.731789         1.012250        -2.032103
 H        -0.840366        -0.241268         0.129718
 H        -0.283605         1.494845        -0.057205
 H        -0.361053         0.189842        -1.485738
 H         1.736776         1.618211         1.427702
 H         2.076944         0.142929         2.156473
 H         4.375514         0.816842         0.625576
 H         4.410002        -1.911043        -1.630955
 H         1.511528        -2.077367        -0.708387
 H         1.797091        -2.122980         1.087101
 H         2.520970         1.972839        -1.834469
