19
Iteration:  3668
 C        -0.140516         0.175839        -0.248500
 C         1.292538         0.022692         0.076160
 C         2.045856         0.618073         1.294828
 C         3.400634         0.479054         0.597536
 C         3.193915        -0.834463        -0.264153
 O         4.254665        -1.395634        -0.972662
 C         1.856508        -1.383169         0.070398
 C         2.635466         0.446579        -0.812679
 O         2.877379         0.739354        -2.145785
 H        -0.763491         0.180679         0.501868
 H        -0.403058         1.201068        -0.577000
 H        -0.417450        -0.405158        -1.197205
 H         1.791644         1.722181         1.502907
 H         1.989182         0.010525         2.250608
 H         4.428075         0.680163         0.899542
 H         4.551941        -0.913997        -1.672378
 H         1.214981        -2.068804        -0.515516
 H         1.818475        -1.853110         1.035610
 H         3.003901         1.672610        -2.203553
