19
Iteration:  1267
 C        -0.088187         0.114131        -0.135337
 C         1.366073        -0.080141         0.116507
 C         2.025842         0.776297         1.165591
 C         3.307444         0.557991         0.299342
 C         3.243250        -0.860294        -0.412559
 O         4.494449        -1.528802        -0.735342
 C         2.033585        -1.459652         0.239174
 C         2.505974         0.323250        -1.001040
 O         2.565987         1.070312        -2.166579
 H        -0.809360        -0.532665         0.471745
 H        -0.314701         1.099623         0.083971
 H        -0.331024        -0.125284        -1.097874
 H         1.584849         1.793975         1.102615
 H         1.666462         0.377879         2.153991
 H         4.368142         0.866323         0.443297
 H         4.553286        -2.473519        -0.485100
 H         1.431124        -2.228171        -0.306639
 H         2.084897        -1.873276         1.293649
 H         2.811418         2.005125        -1.805865
