19
Iteration:  2946
 C        -0.089176         0.307035        -0.280118
 C         1.292170        -0.089417         0.147407
 C         2.177214         0.726594         1.148880
 C         3.342468         0.485216         0.313898
 C         3.179237        -0.990610        -0.392613
 O         4.442354        -1.467069        -0.691679
 C         1.827018        -1.550864         0.169751
 C         2.566889         0.220745        -0.915399
 O         2.687753         1.106608        -1.980342
 H        -0.925130         0.157259         0.328144
 H        -0.123505         1.332296        -0.748637
 H        -0.307038        -0.232663        -1.263892
 H         1.832938         1.726779         1.108669
 H         2.077138         0.191700         2.108496
 H         4.230020         1.024765         0.316391
 H         4.587947        -1.413821        -1.589569
 H         1.348711        -2.204804        -0.587380
 H         1.854881        -2.056734         1.135888
 H         2.532907         1.961724        -1.651881
