19
Iteration:  2659charge 0 multiplicity 1
 C        -0.057319         0.180110        -0.314847
 C         1.359930         0.007999         0.069410
 C         2.139506         0.721158         1.323073
 C         3.332358         0.473026         0.438300
 C         3.208904        -0.826296        -0.291622
 O         4.358428        -1.500090        -0.733563
 C         1.841577        -1.465776        -0.061317
 C         2.626369         0.360965        -0.816489
 O         2.617393         1.015365        -2.055673
 H        -0.619743        -0.329219         0.495269
 H        -0.515357         1.240216        -0.276689
 H        -0.253323        -0.408748        -1.236274
 H         1.919399         1.744153         1.280798
 H         2.148840         0.311511         2.340261
 H         4.342594         0.760180         0.584742
 H         4.103679        -2.173233        -1.328349
 H         1.471655        -1.818264        -1.022955
 H         1.596414        -2.243057         0.744141
 H         3.510726         1.294327        -2.407548
