19
Iteration:  2344charge 0 multiplicity 1
 C        -0.171540         0.259862        -0.262249
 C         1.306836        -0.069258         0.057636
 C         2.099674         0.604819         1.364298
 C         3.273252         0.619728         0.456595
 C         3.293091        -0.835144        -0.315454
 O         4.357352        -1.598962        -0.752395
 C         1.917656        -1.504357        -0.073889
 C         2.596596         0.438177        -0.839278
 O         2.832556         1.018129        -2.066399
 H        -0.850958         0.290613         0.676397
 H        -0.286672         1.193207        -0.806147
 H        -0.579639        -0.475549        -1.015519
 H         1.631755         1.466971         1.849116
 H         2.224942        -0.006108         2.224735
 H         4.148435         1.173423         0.689032
 H         4.236731        -1.786583        -1.825665
 H         1.621557        -1.898775        -1.078685
 H         1.790710        -2.231147         0.756679
 H         1.987490         1.430958        -2.317694
