19
Iteration:  3513charge 0 multiplicity 1
 C        -0.129138         0.315890        -0.286306
 C         1.359105        -0.013540        -0.027401
 C         2.091132         0.674820         1.230136
 C         3.333302         0.427253         0.477721
 C         3.237076        -0.913397        -0.310577
 O         4.375316        -1.523429        -0.795361
 C         1.935576        -1.517281         0.161487
 C         2.605118         0.365950        -0.893866
 O         2.659601         1.045898        -2.069113
 H        -0.646436        -0.068801         0.659038
 H        -0.205782         1.429654        -0.490539
 H        -0.815989        -0.260238        -1.115386
 H         1.834432         1.710171         1.194577
 H         1.811797         0.169828         2.185504
 H         4.389428         0.674730         0.761679
 H         4.143489        -1.989434        -1.602091
 H         1.420205        -2.206955        -0.533082
 H         1.906756        -1.774602         1.219602
 H         3.157182         1.907884        -1.967473
