19
Iteration:  2765charge 0 multiplicity 1
 C        -0.086857         0.183515        -0.363596
 C         1.386367         0.111416         0.066060
 C         2.072788         0.558540         1.306293
 C         3.378822         0.410695         0.549440
 C         3.203036        -0.890942        -0.413786
 O         4.350519        -1.495607        -0.771167
 C         1.885427        -1.407612         0.121324
 C         2.641818         0.517323        -0.802732
 O         2.666749         0.951050        -2.163427
 H        -0.665883        -0.315805         0.462426
 H        -0.486788         1.178718        -0.526116
 H        -0.183305        -0.330986        -1.262897
 H         1.981234         1.725948         1.414747
 H         1.951319         0.087611         2.347050
 H         4.355004         0.639289         0.854907
 H         4.161246        -1.975697        -1.537039
 H         1.409335        -2.119546        -0.556490
 H         1.890181        -1.830398         1.129865
 H         2.276236         1.890175        -2.233894
