19
Iteration:  2051
 C        -0.118288         0.338938        -0.231459
 C         1.277615        -0.057848         0.180700
 C         2.128921         0.581462         1.254024
 C         3.327158         0.512355         0.340881
 C         3.178459        -0.941872        -0.426566
 O         4.483045        -1.452246        -0.631331
 C         1.881715        -1.564198         0.034423
 C         2.532717         0.313836        -0.958890
 O         2.706125         1.153775        -2.017854
 H        -0.925414        -0.205870         0.325839
 H        -0.250262         1.467796        -0.150762
 H        -0.239559         0.214154        -1.350868
 H         1.791984         1.579385         1.438788
 H         2.247735        -0.050125         2.155228
 H         4.439252         0.606117         0.429857
 H         4.638338        -1.407482        -1.513149
 H         1.460774        -2.099464        -0.850065
 H         1.738570        -1.983998         1.022126
 H         2.312854         0.500507        -2.728816
