19
Iteration:  2158charge 0 multiplicity 1
 C        -0.151487         0.364171        -0.283693
 C         1.292441        -0.025743         0.016208
 C         2.037998         0.506930         1.250850
 C         3.322443         0.434746         0.437557
 C         3.243112        -0.867600        -0.351864
 O         4.370164        -1.552823        -0.889530
 C         1.942153        -1.502452         0.182460
 C         2.562900         0.337626        -0.914607
 O         2.736972         1.176432        -1.980955
 H        -0.787566        -0.103926         0.596210
 H        -0.327750         1.385166        -0.439741
 H        -0.521975        -0.176098        -1.230320
 H         1.727999         1.559757         1.456074
 H         1.912589         0.128904         2.309765
 H         4.358845         0.843605         0.455547
 H         5.215752        -1.024569        -0.705635
 H         1.420303        -2.263504        -0.413110
 H         1.860170        -1.832812         1.263972
 H         3.166340         0.566761        -2.715321
