19
Iteration:  4730
 C        -0.125201         0.239210        -0.156899
 C         1.341779        -0.065967        -0.022936
 C         2.130593         0.603626         1.221764
 C         3.411097         0.564760         0.409867
 C         3.209806        -0.843916        -0.332889
 O         4.355003        -1.616467        -0.513475
 C         1.847246        -1.477569        -0.126236
 C         2.640405         0.431517        -0.896334
 O         2.620799         1.120311        -2.078062
 H        -0.778197        -0.474717         0.407243
 H        -0.515128         1.336261         0.035548
 H        -0.376553         0.247057        -1.321455
 H         1.827098         1.608396         1.267901
 H         2.153401         0.059775         2.087393
 H         4.471688         0.826604         0.554348
 H         4.403452        -2.163074        -1.246136
 H         1.431975        -1.943501        -1.071694
 H         1.613002        -2.075788         0.800661
 H         3.422039         1.132646        -2.497492
