19
Iteration:  3525charge 0 multiplicity 1
 C        -0.082255         0.291533        -0.217894
 C         1.333664        -0.051956         0.004477
 C         2.033817         0.661823         1.184418
 C         3.419590         0.474645         0.445907
 C         3.189556        -0.885582        -0.346397
 O         4.392343        -1.585330        -0.705021
 C         1.883307        -1.531165         0.091290
 C         2.657155         0.420067        -0.847796
 O         2.601750         1.097759        -2.125665
 H        -0.858898         0.122133         0.630234
 H        -0.295949         1.415628        -0.358741
 H        -0.310157        -0.259675        -1.305061
 H         1.862819         1.664435         1.379498
 H         2.112305         0.186341         2.191921
 H         4.432510         0.897056         0.648921
 H         4.149536        -2.231754        -1.340987
 H         1.589088        -2.318369        -0.659304
 H         1.816112        -2.058961         1.031072
 H         3.114001         1.862053        -1.998876
