19
Iteration:   289
 C        -0.057114         0.226246        -0.115930
 C         1.403296         0.014951         0.113458
 C         2.104647         0.746719         1.194531
 C         3.409977         0.576196         0.350707
 C         3.171587        -0.878870        -0.326269
 O         4.272946        -1.543960        -0.853304
 C         1.865480        -1.421748         0.165810
 C         2.631059         0.376693        -0.877828
 O         2.578099         0.887296        -2.160143
 H        -0.529938        -0.633798         0.212143
 H        -0.511184         1.134216         0.305933
 H        -0.213086         0.228688        -1.280394
 H         1.841871         1.760376         1.108930
 H         2.153280         0.529520         2.228449
 H         4.494020         0.800129         0.346705
 H         4.857560        -1.974337        -0.002556
 H         1.383754        -2.040934        -0.652411
 H         1.859527        -1.859193         1.123080
 H         3.424927         0.910303        -2.539906
