19
Iteration:  1705
 C        -0.093015         0.420581        -0.223980
 C         1.279795        -0.134289         0.033330
 C         2.008759         0.585732         1.230084
 C         3.289477         0.477817         0.505548
 C         3.240371        -0.848592        -0.348251
 O         4.439425        -1.335979        -0.854266
 C         1.956197        -1.582821         0.115693
 C         2.588045         0.323965        -0.851741
 O         2.698890         0.932565        -2.108673
 H        -0.839709         0.309287         0.577811
 H        -0.040680         1.531098        -0.443916
 H        -0.410978        -0.028610        -1.156605
 H         1.684356         1.665868         1.211765
 H         1.979884         0.150469         2.213167
 H         4.358732         0.881289         0.793569
 H         4.476484        -2.330711        -0.978636
 H         1.760458        -2.291425        -0.682514
 H         2.097312        -2.093042         1.132641
 H         2.224821         1.780959        -2.097151
