19
Iteration:  4416
 C        -0.058969         0.373406        -0.194579
 C         1.394196        -0.090171        -0.034234
 C         2.046089         0.587142         1.285608
 C         3.325618         0.494360         0.429246
 C         3.273942        -0.866647        -0.394654
 O         4.441511        -1.564222        -0.554233
 C         1.920233        -1.516539        -0.046737
 C         2.577540         0.383390        -0.910957
 O         2.517070         1.112315        -2.154667
 H        -0.632596         0.513426         0.857731
 H        -0.225515         1.237619        -0.795692
 H        -0.564093        -0.459812        -0.773108
 H         1.778327         1.615439         1.449372
 H         2.069161         0.168278         2.245047
 H         4.339733         0.827379         0.608998
 H         4.274141        -2.346061        -1.038378
 H         1.434476        -2.091845        -0.811939
 H         1.802703        -2.018773         0.944965
 H         3.376630         1.438994        -2.252861
