19
Iteration:  2273
 C        -0.070105         0.262374        -0.264926
 C         1.299972        -0.119699         0.080874
 C         2.009639         0.685872         1.162459
 C         3.230269         0.559760         0.431676
 C         3.228580        -0.896468        -0.293699
 O         4.380943        -1.565313        -0.897931
 C         1.957057        -1.560210         0.053611
 C         2.555066         0.289690        -0.835444
 O         2.702055         1.068511        -1.949887
 H        -0.818845         0.145438         0.495274
 H         0.009055         1.517473        -0.486478
 H        -0.443657        -0.136303        -1.225434
 H         1.765991         1.740735         1.292214
 H         2.023063         0.390149         2.239997
 H         4.241111         1.113863         0.461208
 H         5.180765        -0.843216        -0.842901
 H         1.612606        -2.188364        -0.795617
 H         1.864033        -2.143140         0.972488
 H         3.439445         1.712062        -1.864977
