19
Iteration:  4572
 C        -0.216631         0.258247        -0.192995
 C         1.344131         0.007248         0.024677
 C         2.115872         0.658282         1.222948
 C         3.336129         0.485802         0.386951
 C         3.194588        -0.910366        -0.375239
 O         4.458288        -1.532545        -0.680928
 C         1.846341        -1.482745        -0.002998
 C         2.637785         0.369185        -0.928202
 O         2.697168         1.119866        -2.036463
 H        -0.813544        -0.566872         0.401064
 H        -0.257538         1.350724         0.048059
 H        -0.596045         0.151812        -1.228241
 H         1.763782         1.706313         1.459790
 H         2.080460         0.093507         2.109617
 H         4.333246         0.905678         0.440701
 H         4.560692        -2.027880         0.209803
 H         1.419732        -2.048650        -0.871653
 H         1.637217        -2.146146         0.851900
 H         3.026599         0.596688        -2.869416
