19
Iteration:    29
 C        -0.048394         0.251190        -0.294456
 C         1.422680        -0.002725         0.083182
 C         2.200567         0.773445         1.194604
 C         3.387381         0.533182         0.413860
 C         3.245984        -0.876877        -0.390208
 O         4.389228        -1.615001        -0.681969
 C         1.969010        -1.449189         0.178545
 C         2.581693         0.330124        -0.902110
 O         2.330341         0.992550        -2.176912
 H        -0.803509        -0.487352         0.173901
 H        -0.389642         1.284801        -0.096332
 H        -0.085775         0.094094        -1.400891
 H         1.755675         1.784568         1.415849
 H         2.179331         0.350616         2.246039
 H         4.355565         0.995143         0.461983
 H         4.599243        -2.001727         0.212124
 H         1.566461        -2.181939        -0.529974
 H         1.874347        -1.900559         1.208913
 H         3.055447         1.339893        -2.660918
