19
Iteration:  3413charge 0 multiplicity 1
 C        -0.150588         0.312102        -0.131831
 C         1.324514         0.007225         0.056039
 C         2.057807         0.638700         1.269949
 C         3.379446         0.505030         0.453542
 C         3.190150        -0.860056        -0.315899
 O         4.364943        -1.454104        -0.690275
 C         1.876390        -1.477328        -0.041266
 C         2.581646         0.332120        -0.898526
 O         2.774873         0.854157        -2.170629
 H        -0.774546        -0.347026         0.483312
 H        -0.405728         1.366489         0.174587
 H        -0.317556         0.298828        -1.302054
 H         1.900877         1.630034         1.327783
 H         2.142060         0.034813         2.156289
 H         4.283326         0.902999         0.841175
 H         4.457911        -1.463059        -1.674957
 H         1.458827        -1.912812        -0.931065
 H         1.855452        -2.251475         0.727222
 H         2.788546         1.869336        -2.033451
