19
Iteration:  3579
 C        -0.138429         0.290504        -0.204028
 C         1.360998        -0.024294         0.009685
 C         2.114148         0.546521         1.196916
 C         3.427160         0.459156         0.364819
 C         3.214548        -0.928077        -0.401678
 O         4.430936        -1.597433        -0.481279
 C         1.855482        -1.433928         0.030368
 C         2.632673         0.424193        -0.915503
 O         2.558996         1.140688        -2.166690
 H        -0.686794        -0.359861         0.499076
 H        -0.305966         1.400963         0.008457
 H        -0.339496         0.173791        -1.392545
 H         1.988179         1.597764         1.135921
 H         2.291597        -0.031449         2.122724
 H         4.472698         0.618184         0.645391
 H         4.398196        -2.086392        -1.276512
 H         1.322023        -1.962816        -0.808358
 H         1.715522        -2.014173         0.952412
 H         2.443159         1.993214        -1.786701
