19
Iteration:  2381charge 0 multiplicity 1
 C        -0.070777         0.318369        -0.220152
 C         1.385214        -0.069115        -0.063569
 C         1.996080         0.630779         1.216132
 C         3.350263         0.331903         0.507492
 C         3.154410        -0.898872        -0.415485
 O         4.480669        -1.425401        -0.669477
 C         1.876119        -1.528487         0.012311
 C         2.633313         0.399850        -0.882943
 O         2.657438         1.098445        -2.071885
 H        -0.635089        -0.198536         0.520792
 H        -0.192025         1.316649        -0.018481
 H        -0.521985        -0.011308        -1.143559
 H         1.842246         1.693619         1.108434
 H         1.932070         0.088889         2.227534
 H         4.347415         0.735137         0.872495
 H         4.389659        -2.358188        -1.212979
 H         1.306011        -2.302821        -0.605064
 H         1.891570        -1.950070         1.045231
 H         2.278803         2.038913        -2.084435
