19
Iteration:  3572
 C        -0.149951         0.295471        -0.243213
 C         1.391081        -0.022435         0.031642
 C         2.192149         0.559971         1.194873
 C         3.462133         0.473341         0.334244
 C         3.194717        -0.915871        -0.359362
 O         4.434258        -1.610456        -0.447056
 C         1.842530        -1.483034        -0.031808
 C         2.620696         0.444107        -0.922282
 O         2.539207         1.138421        -2.132772
 H        -0.871741        -0.255981         0.518750
 H        -0.562345         1.297282         0.026894
 H        -0.466114         0.077394        -1.270387
 H         1.952193         1.639022         1.346211
 H         2.122706        -0.045218         2.098187
 H         4.465493         0.814393         0.478953
 H         4.422458        -2.217892        -1.318144
 H         1.274895        -1.972944        -0.833163
 H         1.673287        -2.102696         0.845790
 H         2.515657         2.130336        -1.963458
