19
Iteration:  3233charge 0 multiplicity 1
 C        -0.243579         0.225589        -0.163434
 C         1.338433         0.072839         0.038948
 C         2.141497         0.618779         1.289674
 C         3.356026         0.538516         0.540742
 C         3.220423        -0.806618        -0.257421
 O         4.314648        -1.513300        -0.703886
 C         1.871843        -1.413905        -0.085443
 C         2.662415         0.439829        -0.851943
 O         2.770213         0.765939        -2.235374
 H        -0.648140        -0.492278         0.649469
 H        -0.547957         1.308144        -0.129323
 H        -0.584948        -0.110125        -1.298337
 H         1.891804         1.559750         1.709035
 H         2.135644        -0.065085         2.197963
 H         4.301829         0.995828         0.669474
 H         4.684067        -1.015151        -1.507552
 H         1.655212        -1.902554        -1.086004
 H         1.651912        -2.151290         0.668634
 H         2.677097         1.752234        -2.280148
