19
Iteration:  4320
 C        -0.157089         0.144255        -0.314199
 C         1.348244         0.012896         0.051485
 C         2.073504         0.712796         1.275084
 C         3.397176         0.500703         0.502419
 C         3.256685        -0.831048        -0.280848
 O         4.236469        -1.569500        -0.930916
 C         1.887770        -1.385353         0.153209
 C         2.602755         0.457249        -0.806396
 O         2.809916         0.825344        -2.080614
 H        -0.740678        -0.542851         0.131063
 H        -0.440609         1.108512         0.023746
 H        -0.249902         0.202376        -1.381953
 H         1.718449         1.617829         1.619549
 H         1.704814         0.206403         2.189458
 H         4.292212         1.087275         0.574671
 H         4.752138        -0.999152        -1.488527
 H         1.436521        -2.075478        -0.615647
 H         1.719355        -1.843058         1.123748
 H         2.896304         1.823768        -2.265471
