19
Iteration:  4336charge 0 multiplicity 1
 C        -0.109366         0.220680        -0.335390
 C         1.347487         0.055854         0.016199
 C         2.002335         0.720619         1.292871
 C         3.343244         0.544071         0.557286
 C         3.264063        -0.872442        -0.307580
 O         4.256239        -1.608055        -0.898662
 C         1.937468        -1.447385         0.149699
 C         2.647101         0.382418        -0.833560
 O         2.770733         0.896548        -2.094629
 H        -0.707498        -0.661220         0.223153
 H        -0.574270         1.276567        -0.008853
 H        -0.493354         0.007795        -1.379482
 H         1.926571         1.862913         1.219421
 H         2.080613         0.203621         2.260524
 H         4.373303         0.867006         0.812841
 H         4.519892        -1.108345        -1.610045
 H         1.564143        -2.152970        -0.637467
 H         2.015251        -1.892139         1.170129
 H         2.414601         1.755709        -1.937795
