19
Iteration:  4467
 C        -0.089603         0.230476        -0.306518
 C         1.355004         0.028922         0.016943
 C         2.013772         0.709870         1.237002
 C         3.371666         0.388163         0.456035
 C         3.205213        -0.913835        -0.352298
 O         4.449198        -1.520194        -0.734363
 C         1.866815        -1.457606         0.143090
 C         2.598298         0.371585        -0.835255
 O         2.630985         1.094452        -2.059302
 H        -0.654961         0.097510         0.545377
 H        -0.404012         1.231384        -0.695458
 H        -0.318972        -0.500228        -1.068100
 H         2.010496         1.791475         1.447574
 H         1.853490         0.137353         2.256844
 H         4.319223         0.818284         0.693370
 H         4.462382        -1.790633        -1.747187
 H         1.305372        -1.997419        -0.635178
 H         1.878217        -1.982746         1.103401
 H         3.148083         0.752115        -2.805772
