19
Iteration:  1068
 C        -0.097753         0.089265        -0.097605
 C         1.362201        -0.027185         0.106139
 C         2.082800         0.788911         1.101338
 C         3.305135         0.498118         0.278996
 C         3.219372        -0.881663        -0.380088
 O         4.423492        -1.571154        -0.677349
 C         1.982409        -1.491384         0.174066
 C         2.515582         0.371853        -0.974910
 O         2.636855         1.192759        -2.095166
 H        -0.572133        -0.528075         0.714689
 H        -0.490252         1.107024         0.120236
 H        -0.470402        -0.236673        -1.094479
 H         1.650336         1.784456         0.989576
 H         2.046747         0.546583         2.149198
 H         4.310355         1.072490         0.427501
 H         4.370063        -2.450399        -0.646488
 H         1.433867        -2.283745        -0.455427
 H         2.219523        -1.752825         1.239415
 H         2.837166         0.661823        -2.885002
