19
Iteration:  4878charge 0 multiplicity 1
 C        -0.189437         0.392603        -0.186953
 C         1.266022        -0.103548         0.067851
 C         2.058773         0.671559         1.273639
 C         3.258238         0.477629         0.496351
 C         3.197463        -0.901395        -0.379003
 O         4.389810        -1.471971        -0.708513
 C         1.918779        -1.550651        -0.032399
 C         2.622112         0.391624        -0.867507
 O         2.872126         0.938519        -2.150335
 H        -0.876665         0.124071         0.734764
 H        -0.366370         1.444117        -0.503126
 H        -0.741318        -0.267597        -0.934946
 H         1.688109         1.687308         1.542073
 H         2.081335         0.267954         2.340252
 H         4.246546         0.893096         0.566901
 H         4.328604        -1.567357        -1.742403
 H         1.570533        -2.240718        -0.893800
 H         1.749982        -2.237051         0.915049
 H         3.288222         1.921764        -2.049919
