19
Iteration:  4817
 C        -0.068272         0.286322        -0.432080
 C         1.307992        -0.051490         0.128775
 C         2.040459         0.655874         1.284253
 C         3.332052         0.490060         0.559068
 C         3.216424        -0.891320        -0.329184
 O         4.306656        -1.563541        -0.894533
 C         1.916226        -1.465707         0.156917
 C         2.596003         0.454066        -0.785886
 O         2.804750         0.939408        -2.058208
 H        -0.849001         0.150685         0.307539
 H        -0.112227         1.399382        -0.730241
 H        -0.101845        -0.412785        -1.325086
 H         1.724701         1.745959         1.425629
 H         1.997884         0.265901         2.331497
 H         4.335944         0.758952         0.842053
 H         4.393190        -1.430440        -1.919580
 H         1.510576        -1.872470        -0.735152
 H         1.800397        -2.014219         1.054380
 H         2.169105         1.682578        -2.286785
