19
Iteration:  1361
 C        -0.145272         0.246683        -0.198995
 C         1.337547        -0.073560         0.030457
 C         2.063103         0.661621         1.281054
 C         3.353304         0.550937         0.435567
 C         3.298302        -0.823854        -0.249980
 O         4.436896        -1.349819        -0.825175
 C         1.967496        -1.513198         0.154949
 C         2.522223         0.356555        -0.869670
 O         2.644207         0.787614        -2.178533
 H        -0.754314         0.086445         0.661324
 H        -0.043929         1.397003        -0.312631
 H        -0.640473        -0.372528        -1.055786
 H         1.821713         1.762631         1.439284
 H         1.967510         0.083887         2.173900
 H         4.199883         1.111678         0.536251
 H         4.173798        -1.328789        -1.673920
 H         1.592369        -2.161067        -0.665674
 H         1.906714        -2.109461         1.071205
 H         2.461316         1.686127        -2.418764
