19
Iteration:  4801charge 0 multiplicity 1
 C        -0.009124         0.332641        -0.383830
 C         1.335510        -0.040397         0.122005
 C         2.013225         0.682064         1.348679
 C         3.308401         0.497740         0.459477
 C         3.229590        -0.855003        -0.352514
 O         4.369622        -1.571136        -0.834335
 C         1.867930        -1.526917         0.080130
 C         2.550221         0.328850        -0.798104
 O         2.804947         0.994485        -2.052002
 H        -0.853816        -0.083445         0.209532
 H        -0.053031         1.378562        -0.450485
 H        -0.143028         0.102111        -1.404274
 H         1.766773         1.759972         1.212187
 H         1.838772         0.104981         2.327026
 H         4.217565         1.134072         0.470929
 H         4.060191        -1.552020        -1.735668
 H         1.356989        -2.361151        -0.504444
 H         1.932135        -1.995548         1.135889
 H         2.281359         1.733316        -2.087140
