19
Iteration:  2740charge 0 multiplicity 1
 C        -0.159548         0.310632        -0.290442
 C         1.331332        -0.043964         0.045963
 C         2.093397         0.698893         1.193735
 C         3.340501         0.452097         0.483418
 C         3.272202        -0.959773        -0.312027
 O         4.460038        -1.449267        -0.742354
 C         1.880323        -1.510445         0.038207
 C         2.574069         0.267202        -0.862663
 O         2.676416         1.028483        -2.028890
 H        -0.777732         0.207663         0.571911
 H        -0.086266         1.330735        -0.494501
 H        -0.596955        -0.069839        -1.206845
 H         1.926671         1.860808         1.252117
 H         2.066398         0.281748         2.250307
 H         4.410695         0.831392         0.486206
 H         4.264612        -1.876079        -1.529425
 H         1.496030        -2.098453        -0.844996
 H         1.724019        -2.114737         0.934935
 H         2.146224         1.828365        -1.932315
