19
Iteration:  3338charge 0 multiplicity 1
 C        -0.025976         0.179002        -0.361993
 C         1.422919        -0.079044         0.112268
 C         2.104845         0.717226         1.229407
 C         3.369626         0.570077         0.470525
 C         3.226719        -0.832443        -0.348311
 O         4.294790        -1.727544        -0.688139
 C         1.916324        -1.480479         0.055265
 C         2.632104         0.432198        -0.848613
 O         2.554439         1.127626        -2.074580
 H        -0.757320        -0.051579         0.404662
 H        -0.242397         1.230817        -0.566100
 H        -0.152132        -0.492013        -1.181833
 H         1.793444         1.889785         1.162414
 H         2.185403         0.201431         2.285736
 H         4.282819         1.014036         0.772544
 H         4.076393        -2.068615        -1.684648
 H         1.443322        -1.984102        -0.832485
 H         1.849300        -2.175974         0.913443
 H         2.909048         1.983032        -2.068919
