19
Iteration:  2526charge 0 multiplicity 1
 C        -0.134257         0.282425        -0.205976
 C         1.304231        -0.017010        -0.008301
 C         2.022678         0.499290         1.249605
 C         3.302204         0.471494         0.490108
 C         3.254459        -0.855004        -0.370243
 O         4.393198        -1.500863        -0.646833
 C         1.993362        -1.491067         0.050747
 C         2.632704         0.390779        -0.934209
 O         2.695093         1.048779        -2.169313
 H        -0.612634         0.432155         0.781568
 H        -0.080184         1.350533        -0.616248
 H        -0.744227        -0.282871        -0.864906
 H         1.790633         1.602657         1.415755
 H         1.819697        -0.048852         2.267583
 H         4.233245         0.987940         0.736447
 H         4.496587        -2.105541        -1.543728
 H         1.416107        -2.002432        -0.726713
 H         1.929883        -2.056419         1.054703
 H         2.575477         2.011637        -2.012860
