19
Iteration:  3823
 C        -0.085097         0.264087        -0.357811
 C         1.355039         0.021960         0.048115
 C         2.079208         0.727850         1.252642
 C         3.348648         0.464873         0.435408
 C         3.184610        -0.965263        -0.316531
 O         4.406105        -1.521867        -0.825172
 C         1.862544        -1.515515         0.174407
 C         2.643945         0.286154        -0.851085
 O         2.652641         1.044632        -2.060344
 H        -0.732241         0.075911         0.388804
 H        -0.088981         1.357257        -0.657706
 H        -0.443057        -0.396656        -1.201271
 H         1.685741         1.888273         1.413758
 H         1.941611         0.367290         2.349396
 H         4.320478         0.884274         0.625020
 H         4.175318        -1.778736        -1.661639
 H         1.199159        -2.146382        -0.429532
 H         1.910316        -1.889290         1.203313
 H         3.164169         1.887520        -1.788851
