19
Iteration:  4872charge 0 multiplicity 1
 C        -0.205556         0.344112        -0.200585
 C         1.229466        -0.058208         0.102845
 C         2.014125         0.683015         1.319962
 C         3.323506         0.480745         0.486852
 C         3.220469        -0.864211        -0.370877
 O         4.389154        -1.488708        -0.737992
 C         1.890546        -1.532636        -0.049717
 C         2.637157         0.358309        -0.825822
 O         2.852973         0.927592        -2.155146
 H        -0.756078         0.246185         0.676849
 H        -0.215857         1.348986        -0.633931
 H        -0.547854        -0.300356        -1.005233
 H         1.700959         1.764414         1.355785
 H         2.065150         0.088684         2.228805
 H         4.359015         0.820071         0.659989
 H         4.344257        -1.398248        -1.719062
 H         1.471755        -2.120294        -0.837932
 H         1.851647        -2.157210         0.790441
 H         3.275386         1.775604        -2.077094
