19
Iteration:  1435
 C        -0.098295        -0.029222        -0.222826
 C         1.417684        -0.019860         0.057145
 C         2.131371         0.751504         1.188651
 C         3.370151         0.626328         0.354013
 C         3.294905        -0.823722        -0.345653
 O         4.315593        -1.754160        -0.643210
 C         1.950386        -1.395535         0.091660
 C         2.575070         0.447926        -0.940047
 O         2.486426         1.123716        -2.113453
 H        -0.558471        -0.566285         0.560625
 H        -0.467790         0.964575        -0.094034
 H        -0.465519        -0.555935        -1.093655
 H         1.692681         1.677300         1.386878
 H         2.126497         0.055804         2.094953
 H         4.280657         1.072378         0.316057
 H         5.044220        -1.204346        -0.829233
 H         1.545825        -2.027212        -0.718735
 H         1.911559        -1.944321         1.087003
 H         3.090632         1.953091        -2.104449
