19
Iteration:  2797
 C        -0.132290         0.226391        -0.356425
 C         1.336476         0.021323         0.126050
 C         2.131989         0.614281         1.276458
 C         3.354579         0.632569         0.407272
 C         3.222371        -0.855646        -0.225179
 O         4.270012        -1.565497        -0.818645
 C         1.935245        -1.524388         0.069517
 C         2.565876         0.398483        -0.775124
 O         2.744477         0.962114        -2.077626
 H        -0.816126        -0.532736         0.065277
 H        -0.591087         1.118249        -0.194995
 H        -0.168549        -0.114054        -1.321925
 H         1.806766         1.762448         1.445442
 H         2.230013         0.179063         2.348576
 H         4.284580         1.097639         0.393323
 H         4.287607        -1.662573        -1.892932
 H         1.621008        -1.981829        -0.901783
 H         1.794053        -2.204900         0.902924
 H         3.084679         1.863324        -2.069438
