19
Iteration:  2311
 C        -0.109890         0.187827        -0.284014
 C         1.338843         0.036929         0.010288
 C         2.064067         0.647535         1.282788
 C         3.306457         0.345757         0.566649
 C         3.216439        -0.835709        -0.338352
 O         4.306835        -1.454895        -0.850887
 C         1.896198        -1.462675         0.062250
 C         2.666285         0.437614        -0.815248
 O         2.766557         0.949704        -2.124614
 H        -0.766876         0.277684         0.645259
 H        -0.282586         1.023379        -0.851126
 H        -0.429000        -0.733976        -0.802321
 H         1.829686         1.709161         1.453112
 H         1.982752        -0.049236         2.059716
 H         4.215905         0.623378         0.961417
 H         4.863394        -0.786326        -1.257843
 H         1.467326        -2.128284        -0.710195
 H         1.740490        -2.037918         1.008552
 H         2.404006         1.923885        -2.019187
