19
Iteration:  2908charge 0 multiplicity 1
 C        -0.094507         0.283636        -0.257227
 C         1.346859         0.038132         0.033209
 C         2.021703         0.594596         1.215293
 C         3.394052         0.444377         0.538265
 C         3.261318        -0.816446        -0.365331
 O         4.330124        -1.517947        -0.710194
 C         1.993053        -1.466640        -0.008153
 C         2.655375         0.405952        -0.887783
 O         2.571905         0.961605        -2.118620
 H        -0.602052         0.212123         0.740473
 H        -0.320316         1.236081        -0.648368
 H        -0.427724        -0.493218        -0.889037
 H         1.885036         1.700748         1.537679
 H         1.859936         0.125936         2.260854
 H         4.362792         0.972036         0.799042
 H         4.051476        -2.400827        -1.159497
 H         1.630617        -2.083470        -0.839361
 H         2.038843        -2.038997         0.940687
 H         2.889899         1.897928        -2.008550
