19
Iteration:  1493
 C        -0.089237         0.259643        -0.237645
 C         1.343556        -0.025652         0.074265
 C         2.108600         0.693493         1.190706
 C         3.289365         0.496271         0.422654
 C         3.246715        -0.865765        -0.299597
 O         4.474006        -1.299054        -0.896689
 C         1.925891        -1.565567         0.178921
 C         2.515578         0.208160        -0.905556
 O         2.617757         0.939162        -2.077873
 H        -0.645806         0.037388         0.549757
 H        -0.319937         1.366473        -0.418198
 H        -0.473594        -0.225641        -1.197535
 H         1.805815         1.786164         1.348210
 H         1.804307         0.165441         2.075313
 H         4.338143         1.016623         0.559594
 H         4.679622        -2.320675        -0.486714
 H         1.489607        -2.330262        -0.546971
 H         1.879402        -1.967066         1.218406
 H         2.627925         1.854128        -1.907115
