19
Iteration:  3021charge 0 multiplicity 1
 C        -0.116195         0.153851        -0.204618
 C         1.297052         0.023010         0.116916
 C         2.139531         0.685565         1.256291
 C         3.401951         0.496534         0.479868
 C         3.190411        -0.818704        -0.277332
 O         4.281802        -1.471469        -0.752010
 C         1.856337        -1.462388        -0.018924
 C         2.561190         0.439918        -0.851945
 O         2.817411         0.826981        -2.158487
 H        -0.775020        -0.513871         0.320590
 H        -0.490895         1.212810        -0.154664
 H        -0.253375         0.037739        -1.237869
 H         1.845764         1.758811         1.462481
 H         2.108787         0.191872         2.377381
 H         4.324934         1.009093         0.577957
 H         4.320162        -1.410131        -1.736297
 H         1.402424        -1.802363        -0.953729
 H         1.716192        -2.200307         0.786525
 H         2.989713         1.836599        -2.176235
