19
Iteration:  2543
 C        -0.161438         0.315913        -0.189945
 C         1.355583        -0.039303        -0.096400
 C         2.004756         0.596544         1.214595
 C         3.424513         0.452814         0.513236
 C         3.273061        -0.817087        -0.302236
 O         4.452314        -1.575222        -0.628306
 C         1.901533        -1.467293        -0.047478
 C         2.647405         0.463305        -0.860338
 O         2.648742         1.030933        -2.131458
 H        -0.577423         0.129726         0.883690
 H        -0.502649         1.291626        -0.380972
 H        -0.591587        -0.469820        -0.917629
 H         1.665162         1.624712         1.316371
 H         1.930994        -0.111248         1.952766
 H         4.376924         0.742453         0.867671
 H         4.088925        -1.996975        -1.544133
 H         1.686590        -2.286805        -0.775891
 H         1.805603        -1.946889         0.890640
 H         1.904906         1.706596        -2.215692
