19
Iteration:  4276charge 0 multiplicity 1
 C        -0.148602         0.279104        -0.142033
 C         1.258655        -0.010707         0.051637
 C         2.007382         0.657661         1.237155
 C         3.373827         0.503044         0.438698
 C         3.187315        -0.868339        -0.342514
 O         4.422214        -1.496629        -0.787919
 C         1.823455        -1.468407         0.049055
 C         2.579142         0.412256        -0.828746
 O         2.863276         0.839741        -2.126428
 H        -0.716142        -0.245313         0.540828
 H        -0.367575         1.335879        -0.077066
 H        -0.303440        -0.014525        -1.186440
 H         1.765754         1.673392         1.391781
 H         2.011447         0.312465         2.318202
 H         4.387526         0.919931         0.513874
 H         4.563228        -1.278936        -1.769755
 H         1.424367        -2.071326        -0.772772
 H         1.712014        -2.004931         0.985126
 H         2.722965         1.847414        -2.175563
