19
Iteration:  4911
 C        -0.160636         0.332908        -0.112208
 C         1.320982        -0.035235        -0.051399
 C         2.031283         0.601242         1.164049
 C         3.318904         0.416087         0.435788
 C         3.202892        -0.883856        -0.331129
 O         4.444792        -1.507583        -0.643032
 C         1.825993        -1.440395         0.026029
 C         2.655584         0.343590        -0.975741
 O         2.823765         1.043617        -2.100449
 H        -0.815121        -0.257263         0.725736
 H        -0.487837         1.382323         0.141587
 H        -0.620490        -0.026924        -1.112928
 H         1.687995         1.649722         1.399096
 H         1.978436        -0.139515         1.999410
 H         4.259176         0.925958         0.494111
 H         4.418779        -2.237828        -1.216166
 H         1.479927        -2.027114        -0.887244
 H         1.671014        -1.746135         1.132797
 H         2.540659         1.917466        -1.951906
