19
Iteration:  1816
 C        -0.147896         0.206208        -0.269728
 C         1.319044        -0.084652        -0.012961
 C         2.034496         0.747562         1.133815
 C         3.315997         0.499715         0.435825
 C         3.313218        -0.890908        -0.274844
 O         4.357845        -1.699553        -0.784963
 C         2.009109        -1.544690         0.135785
 C         2.597850         0.366803        -0.908172
 O         2.685243         1.189572        -1.975814
 H        -0.815822        -0.530758         0.366600
 H        -0.443066         1.223226        -0.009391
 H        -0.380487         0.155311        -1.310347
 H         1.732074         1.786062         0.873982
 H         1.938047         0.669045         2.236271
 H         4.321129         1.131939         0.669941
 H         4.427048        -1.662674        -1.658478
 H         1.507579        -2.222826        -0.575346
 H         1.963151        -2.084691         1.104170
 H         2.500772         2.115236        -1.703261
