19
Iteration:   171charge 0 multiplicity 1
 C        -0.179656         0.213434        -0.046930
 C         1.298096         0.089945         0.037797
 C         2.099216         0.726127         1.151645
 C         3.342566         0.579987         0.441514
 C         3.254246        -0.912772        -0.212349
 O         4.330749        -1.495901        -0.949025
 C         1.866974        -1.422861         0.180443
 C         2.640846         0.337953        -0.918349
 O         2.702893         0.875886        -2.240601
 H        -0.597160         0.462578         0.943518
 H        -0.459821         1.023826        -0.752000
 H        -0.708204        -0.746098        -0.365831
 H         2.025564         1.877862         1.460906
 H         2.023479         0.164418         2.180374
 H         4.315382         0.848852         0.807958
 H         4.836687        -2.135748        -0.275658
 H         1.484941        -2.003381        -0.637557
 H         1.723777        -1.834914         1.237277
 H         3.680059         0.953941        -2.493091
