19
Iteration:  3886
 C        -0.141040         0.324466        -0.071717
 C         1.350708         0.038666        -0.028413
 C         1.911681         0.595935         1.239217
 C         3.379922         0.507693         0.545819
 C         3.297875        -0.829880        -0.199193
 O         4.385648        -1.491998        -0.780267
 C         1.834219        -1.427033        -0.031613
 C         2.625999         0.435098        -0.858557
 O         2.844299         0.772465        -2.230852
 H        -0.690457        -0.360738         0.839626
 H        -0.411774         1.407593         0.013868
 H        -0.661524        -0.143549        -0.986808
 H         1.729552         1.553532         1.289098
 H         1.883419        -0.022960         2.061528
 H         4.378376         0.882127         0.745832
 H         4.310227        -1.344547        -1.660473
 H         1.355147        -1.767581        -0.974111
 H         1.673670        -2.070105         0.837900
 H         2.391823         1.662462        -2.438557
