19
Iteration:  1183
 C        -0.101189         0.264027        -0.257871
 C         1.348819        -0.084251         0.111371
 C         2.081522         0.732328         1.197164
 C         3.318998         0.595505         0.326273
 C         3.278210        -0.820936        -0.300057
 O         4.419148        -1.498392        -0.752549
 C         2.030289        -1.594074         0.229825
 C         2.607478         0.322235        -0.912464
 O         2.409167         0.911043        -2.109954
 H        -0.737463         0.218586         0.682221
 H        -0.061699         1.350765        -0.578498
 H        -0.546038        -0.296617        -1.156705
 H         1.730867         1.738310         1.329376
 H         2.023475         0.190663         2.180180
 H         4.325976         1.148190         0.591555
 H         5.004738        -0.900409        -1.477766
 H         1.693292        -2.249275        -0.533472
 H         2.093504        -2.020967         1.245115
 H         3.175492         1.260785        -2.514408
