19
Iteration:  2560charge 0 multiplicity 1
 C        -0.114331         0.213727        -0.218368
 C         1.392936         0.016873         0.031834
 C         2.071007         0.648910         1.210523
 C         3.340250         0.501312         0.455193
 C         3.261769        -0.908258        -0.291873
 O         4.439246        -1.560164        -0.633213
 C         1.859190        -1.448681        -0.103782
 C         2.618251         0.415561        -0.842109
 O         2.679291         1.036889        -2.080345
 H        -0.677175        -0.185164         0.617152
 H        -0.331623         1.350108        -0.334822
 H        -0.535929        -0.263611        -1.071743
 H         1.891161         1.771288         1.329250
 H         1.913462         0.222487         2.307476
 H         4.374815         1.012283         0.616793
 H         4.288654        -1.995210        -1.513982
 H         1.533038        -1.715818        -1.120417
 H         1.551793        -2.266603         0.675262
 H         1.696470         1.199962        -2.280569
