19
Iteration:  3067
 C        -0.108699         0.381689        -0.146377
 C         1.273373        -0.052827        -0.054415
 C         1.947897         0.580615         1.143470
 C         3.319976         0.385317         0.467844
 C         3.225955        -0.838550        -0.332983
 O         4.449965        -1.408365        -0.781652
 C         1.957708        -1.488813         0.175295
 C         2.556094         0.351000        -0.917844
 O         2.809332         0.913970        -2.092491
 H        -0.471950         0.143732         0.776218
 H        -0.089766         1.460781        -0.296464
 H        -0.795141         0.112328        -0.956325
 H         1.796376         1.655010         1.298293
 H         1.728411        -0.000458         2.248149
 H         4.374079         0.752516         0.646595
 H         4.098776        -1.904197        -1.608999
 H         1.517107        -2.196468        -0.560578
 H         1.805940        -1.815938         1.180346
 H         2.566177         1.905982        -2.068842
