19
Iteration:  3784
 C        -0.064830         0.223127        -0.382102
 C         1.428802        -0.049167         0.059252
 C         2.136079         0.717091         1.237150
 C         3.397102         0.484183         0.421495
 C         3.260946        -0.936305        -0.295467
 O         4.330969        -1.696781        -0.604343
 C         1.954008        -1.493714         0.080445
 C         2.554646         0.344236        -0.941147
 O         2.479484         1.235350        -2.071400
 H        -0.776597         0.073144         0.585771
 H        -0.304809         1.281883        -0.354667
 H        -0.188937         0.048445        -1.429645
 H         1.763637         1.683045         1.187621
 H         1.971178         0.388062         2.236815
 H         4.400708         0.873624         0.484454
 H         4.275664        -1.988525        -1.569635
 H         1.598381        -2.180577        -0.709773
 H         1.918431        -2.179042         0.973544
 H         3.105131         1.935293        -2.044036
