19
Iteration:  1949
 C        -0.140681         0.249014        -0.271215
 C         1.311901        -0.048043         0.027594
 C         2.093813         0.606458         1.268750
 C         3.348650         0.382996         0.376914
 C         3.173035        -0.924316        -0.383017
 O         4.451101        -1.356778        -0.746226
 C         1.850242        -1.499614         0.148606
 C         2.622799         0.367904        -0.878597
 O         2.665966         1.103062        -2.047729
 H        -0.905350        -0.099008         0.553679
 H        -0.322116         1.210771        -0.629932
 H        -0.412985        -0.443367        -1.124171
 H         1.827468         1.615441         1.416781
 H         1.988773         0.210612         2.253315
 H         4.272785         0.752408         0.607531
 H         4.491774        -1.922065        -1.614130
 H         1.364965        -2.217212        -0.462022
 H         1.845259        -1.938369         1.141852
 H         3.594983         1.316642        -2.209758
