19
Iteration:    52
 C        -0.024635         0.285863        -0.388152
 C         1.425225         0.005932         0.068463
 C         2.204993         0.743412         1.154438
 C         3.444711         0.621271         0.240385
 C         3.292977        -0.885122        -0.197755
 O         4.402008        -1.651782        -0.689742
 C         1.933634        -1.440254         0.160095
 C         2.551407         0.306562        -0.857630
 O         2.307824         0.938496        -2.100970
 H        -0.748556        -0.590509         0.013974
 H        -0.398914         1.195042         0.122695
 H        -0.201299         0.372117        -1.425543
 H         1.843542         1.778455         1.322100
 H         2.066382         0.346211         2.187814
 H         4.480619         0.820766         0.219571
 H         4.902478        -2.060160         0.131122
 H         1.552505        -2.016640        -0.651347
 H         1.698687        -2.028997         1.110443
 H         2.239398         1.967526        -1.848014
