19
Iteration:     5
 C        -0.097608         0.212381        -0.192081
 C         1.366915        -0.016682         0.093373
 C         2.085930         0.749656         1.203202
 C         3.362612         0.550724         0.325146
 C         3.258900        -0.865988        -0.317009
 O         4.354811        -1.526942        -0.803407
 C         1.921328        -1.457501         0.193527
 C         2.552355         0.361758        -0.897977
 O         2.602219         0.977719        -2.141086
 H        -0.685738        -0.158203         0.625884
 H        -0.284240         1.301021        -0.310935
 H        -0.417524        -0.349466        -1.186730
 H         1.859022         1.889246         1.317008
 H         2.053590         0.448662         2.306937
 H         4.379353         0.970159         0.486875
 H         4.984224        -1.867891        -0.035366
 H         1.437644        -2.183907        -0.532656
 H         2.003945        -2.004649         1.150921
 H         2.683527         0.365730        -2.919021
