19
Iteration:  3028
 C        -0.154413         0.196665        -0.225308
 C         1.284814        -0.064782         0.188500
 C         2.151454         0.710086         1.242249
 C         3.369248         0.506112         0.426514
 C         3.166949        -0.844684        -0.286610
 O         4.358510        -1.429045        -0.783959
 C         1.793923        -1.455685         0.028148
 C         2.563252         0.429325        -0.851076
 O         2.872514         0.841748        -2.147849
 H        -1.028690        -0.389230         0.362485
 H        -0.313011         1.255720         0.038080
 H        -0.342861        -0.048364        -1.314050
 H         1.814301         1.737316         1.438164
 H         2.094523         0.276563         2.138427
 H         4.416643         0.708152         0.710963
 H         4.319404        -1.512283        -1.675390
 H         1.439638        -1.859327        -0.924139
 H         1.751105        -2.280621         0.786400
 H         2.792934         1.810077        -2.220592
