19
Iteration:  3308charge 0 multiplicity 1
 C        -0.119265         0.193363        -0.400187
 C         1.342197        -0.002143         0.060566
 C         2.159385         0.711693         1.247212
 C         3.402825         0.452242         0.417768
 C         3.232907        -0.913156        -0.364442
 O         4.359165        -1.618947        -0.767857
 C         1.831642        -1.472002         0.168394
 C         2.561919         0.372578        -0.858509
 O         2.640096         1.070929        -2.019109
 H        -0.810015         0.006014         0.489538
 H        -0.239302         1.192377        -0.845562
 H        -0.351148        -0.653265        -1.011485
 H         1.951713         1.772017         1.431949
 H         2.092272         0.393986         2.245292
 H         4.287784         1.059683         0.503458
 H         4.761669        -1.124313        -1.430960
 H         1.283592        -2.025314        -0.652113
 H         1.796469        -1.924091         1.178165
 H         3.033050         1.979668        -1.868791
