19
Iteration:  2876
 C        -0.139128         0.235528        -0.197916
 C         1.317355         0.019363         0.107372
 C         2.094306         0.618964         1.300643
 C         3.315784         0.583996         0.405263
 C         3.264779        -0.857514        -0.235828
 O         4.389928        -1.549951        -0.723678
 C         1.860225        -1.451474        -0.103219
 C         2.546476         0.430566        -0.859128
 O         2.760539         0.909628        -2.150970
 H        -0.780970        -0.087918         0.600075
 H        -0.360926         1.251793        -0.428218
 H        -0.427084        -0.186825        -1.059551
 H         2.034980         1.702094         1.685440
 H         2.449822        -0.188879         2.046488
 H         4.188517         1.262953         0.654858
 H         4.196936        -2.195833        -1.335582
 H         1.604991        -1.860006        -1.059849
 H         1.692820        -2.214856         0.688348
 H         2.615858         1.837058        -2.105048
