19
Iteration:  3207
 C        -0.104174         0.178955        -0.226002
 C         1.359469         0.042985         0.076368
 C         2.035121         0.618324         1.267553
 C         3.383912         0.438943         0.514267
 C         3.166627        -0.832409        -0.391403
 O         4.411203        -1.427164        -0.736257
 C         1.794306        -1.375113         0.085264
 C         2.611919         0.460646        -0.847895
 O         2.779082         0.823885        -2.196381
 H        -0.582683        -0.630903         0.513359
 H        -0.405772         1.264310        -0.011284
 H        -0.396578         0.080590        -1.272413
 H         1.767013         1.757777         1.328617
 H         1.893590         0.060941         2.164839
 H         4.454609         0.737193         0.637726
 H         4.330745        -1.886690        -1.540347
 H         1.276231        -1.923332        -0.749125
 H         1.609324        -2.008455         1.012764
 H         2.786781         1.841360        -2.203145
