19
Iteration:  2376charge 0 multiplicity 1
 C        -0.067334         0.311297        -0.194964
 C         1.374605        -0.083879        -0.082134
 C         1.999021         0.598043         1.231050
 C         3.337016         0.344290         0.486232
 C         3.189010        -0.883372        -0.379581
 O         4.456864        -1.456733        -0.694846
 C         1.884687        -1.539824         0.003092
 C         2.631719         0.451208        -0.875792
 O         2.686950         1.085737        -2.067841
 H        -0.719227        -0.166494         0.649372
 H        -0.191809         1.495882        -0.160546
 H        -0.525261        -0.007529        -1.182132
 H         1.819559         1.698548         1.155237
 H         1.788263         0.238619         2.210113
 H         4.250392         0.848890         0.723368
 H         4.408373        -2.229303        -1.116622
 H         1.476380        -2.271746        -0.679076
 H         1.840011        -1.876161         1.040926
 H         2.114211         1.861727        -1.998704
