19
Iteration:   111charge 0 multiplicity 1
 C        -0.179113         0.233617        -0.133060
 C         1.323812         0.026493         0.077984
 C         2.128967         0.716656         1.192449
 C         3.337282         0.565165         0.360079
 C         3.266639        -0.899792        -0.214662
 O         4.308883        -1.491635        -0.899893
 C         1.867538        -1.401246         0.229992
 C         2.617550         0.279896        -0.907714
 O         2.783574         0.909704        -2.193802
 H        -0.694487        -0.413941         0.546322
 H        -0.428654         1.242009         0.189362
 H        -0.539507         0.085875        -1.130047
 H         1.964953         1.733824         1.169756
 H         2.024532         0.280736         2.126855
 H         4.283570         1.200322         0.246851
 H         5.032273        -1.674331        -0.276750
 H         1.398602        -2.162560        -0.463817
 H         1.758928        -1.776118         1.240009
 H         2.109633         0.575661        -2.723381
