19
Iteration:  3558
 C        -0.113000         0.284101        -0.215988
 C         1.310950         0.046686         0.001897
 C         2.213002         0.667203         1.311867
 C         3.373172         0.469655         0.316915
 C         3.270200        -0.899702        -0.379902
 O         4.417315        -1.640870        -0.459594
 C         1.850931        -1.495690        -0.104760
 C         2.544925         0.397340        -0.920948
 O         2.536200         1.106775        -2.097245
 H        -0.655209        -0.451741         0.515277
 H        -0.261583         1.424260        -0.223293
 H        -0.282036        -0.070837        -1.393891
 H         2.016060         1.665490         1.521851
 H         2.419072        -0.072957         2.104644
 H         4.388572         0.872527         0.330831
 H         4.292070        -2.275631        -1.164288
 H         1.634858        -2.017566        -1.077702
 H         1.740420        -2.162305         0.747615
 H         2.780386         2.030973        -1.855754
