19
Iteration:   839
 C        -0.086277         0.201906        -0.241331
 C         1.389661         0.027208        -0.019148
 C         2.124689         0.792144         1.129769
 C         3.412074         0.521843         0.295679
 C         3.299435        -0.900701        -0.311381
 O         4.394982        -1.673282        -0.738202
 C         1.897148        -1.466308         0.259574
 C         2.544676         0.268411        -0.947491
 O         2.410897         1.111215        -1.985579
 H        -0.583977        -0.030492         0.753590
 H        -0.294212         1.245116        -0.427211
 H        -0.442649        -0.351042        -1.047294
 H         1.839915         1.822433         1.175683
 H         1.833819         0.200989         2.094025
 H         4.372347         0.990876         0.415134
 H         5.313564        -1.107686        -0.758449
 H         1.597237        -2.188782        -0.535356
 H         1.932213        -2.027049         1.154698
 H         3.284137         1.130811        -2.535558
