19
Iteration:  3582charge 0 multiplicity 1
 C        -0.108060         0.298937        -0.197470
 C         1.336758        -0.009962         0.000633
 C         2.105438         0.558228         1.199269
 C         3.396135         0.440231         0.381238
 C         3.232807        -0.920256        -0.415629
 O         4.425777        -1.587313        -0.495174
 C         1.854740        -1.433992         0.047696
 C         2.634627         0.404612        -0.926245
 O         2.572207         1.131304        -2.169096
 H        -0.707292        -0.490757         0.491203
 H        -0.177522         1.421832         0.000618
 H        -0.337109         0.156428        -1.323450
 H         1.921934         1.576730         1.240493
 H         2.243293         0.089127         2.140175
 H         4.403120         0.556686         0.683090
 H         4.413905        -2.154463        -1.421423
 H         1.403368        -1.993169        -0.805171
 H         1.772612        -1.942681         0.997736
 H         2.403423         2.053477        -1.750864
