19
Iteration:  3086
 C        -0.133515         0.346909        -0.192858
 C         1.341296        -0.080836         0.034828
 C         2.054276         0.629753         1.232641
 C         3.349222         0.564198         0.479801
 C         3.239849        -0.894211        -0.293942
 O         4.390586        -1.536615        -0.701492
 C         1.890979        -1.558819         0.006500
 C         2.645038         0.388388        -0.872722
 O         2.675067         0.992551        -2.156092
 H        -0.701533         0.306153         0.857553
 H        -0.201075         1.388587        -0.695613
 H        -0.625489        -0.221030        -0.972638
 H         1.653176         1.652373         1.220462
 H         1.971410         0.088156         2.106472
 H         4.288925         1.077466         0.754982
 H         4.224004        -1.906894        -1.686886
 H         1.609194        -2.221464        -0.829517
 H         1.906197        -2.119440         0.975555
 H         2.918928         1.940842        -2.040921
