19
Iteration:  1710
 C        -0.077788         0.432331        -0.237561
 C         1.280419        -0.130543         0.057034
 C         1.994371         0.587271         1.222812
 C         3.275077         0.502848         0.507549
 C         3.241151        -0.884059        -0.330682
 O         4.438678        -1.318354        -0.870114
 C         1.979047        -1.609097         0.098069
 C         2.599548         0.327261        -0.854284
 O         2.709380         0.918939        -2.123777
 H        -0.783825         0.277308         0.631687
 H         0.135787         1.500272        -0.223718
 H        -0.711275        -0.017358        -1.058290
 H         1.716547         1.622754         1.126157
 H         1.873849         0.149029         2.275419
 H         4.183921         0.896564         0.827000
 H         4.517060        -2.343663        -0.890575
 H         1.584733        -2.245173        -0.742686
 H         2.081067        -1.952091         1.116758
 H         2.273678         1.819269        -2.027160
