19
Iteration:  3430charge 0 multiplicity 1
 C        -0.231116         0.289982        -0.189403
 C         1.307618         0.049851        -0.007467
 C         2.046693         0.611767         1.286026
 C         3.358322         0.525242         0.541133
 C         3.286017        -0.806082        -0.283173
 O         4.386932        -1.606986        -0.830080
 C         1.885843        -1.388700        -0.006282
 C         2.701178         0.473088        -0.788163
 O         2.735556         0.781408        -2.163339
 H        -0.662213        -0.327216         0.640987
 H        -0.507130         1.284375         0.119788
 H        -0.566004        -0.000926        -1.139833
 H         1.579392         1.708963         1.601501
 H         1.826964        -0.087117         2.152788
 H         4.396394         0.918148         0.643929
 H         4.543481        -1.143468        -1.760516
 H         1.550810        -2.040920        -0.862649
 H         1.541983        -1.921394         0.924723
 H         2.826238         1.775874        -2.362912
