19
Iteration:   905charge 0 multiplicity 1
 C        -0.131054         0.104824        -0.088609
 C         1.341808         0.048053         0.034657
 C         2.114143         0.725667         1.171273
 C         3.401654         0.554396         0.386604
 C         3.241944        -0.773198        -0.276017
 O         4.366551        -1.712004        -0.735516
 C         1.898881        -1.401978         0.133732
 C         2.554097         0.369010        -0.965610
 O         2.645862         0.975509        -2.236998
 H        -0.501239        -0.395221         0.847241
 H        -0.536117         1.075273         0.055653
 H        -0.545114        -0.264986        -0.957352
 H         2.032568         1.741764         1.439031
 H         2.007340         0.110309         2.183723
 H         4.299950         1.199592         0.251206
 H         5.127776        -1.292849        -0.581265
 H         1.408968        -1.855048        -0.728483
 H         1.782265        -1.925152         1.029880
 H         2.403380         1.888306        -2.047091
