19
Iteration:  3216charge 0 multiplicity 1
 C        -0.095576         0.176971        -0.198721
 C         1.364774         0.118284         0.026823
 C         2.043372         0.584511         1.289719
 C         3.381528         0.445106         0.471455
 C         3.211831        -0.789833        -0.366917
 O         4.381542        -1.471750        -0.698226
 C         1.785341        -1.378734        -0.000053
 C         2.597557         0.526001        -0.837112
 O         2.763256         0.764293        -2.196153
 H        -0.612844        -0.549009         0.420945
 H        -0.555824         1.108086         0.117019
 H        -0.383534        -0.154992        -1.099485
 H         1.759024         1.641272         1.650678
 H         1.893921         0.067358         2.277790
 H         4.470819         0.569278         0.776277
 H         4.538958        -1.515544        -1.620355
 H         1.298076        -1.908567        -0.803717
 H         1.723437        -1.870994         1.022717
 H         2.826934         1.772461        -2.360482
