19
Iteration:   569
 C        -0.181357         0.307999        -0.159272
 C         1.332860         0.021926         0.123639
 C         2.153325         0.734101         1.213981
 C         3.426440         0.604454         0.350267
 C         3.267804        -0.868299        -0.223066
 O         4.345865        -1.543295        -0.933892
 C         1.838722        -1.449746         0.096053
 C         2.568693         0.359329        -0.837740
 O         2.619404         0.845596        -2.142823
 H        -0.713439        -0.311705         0.647876
 H        -0.587146         1.283154        -0.271386
 H        -0.385110        -0.278232        -1.049186
 H         1.714721         1.843118         1.422024
 H         2.296665         0.266396         2.236246
 H         4.432541         1.071586         0.468543
 H         4.955277        -1.678573        -0.330051
 H         1.633574        -2.045594        -0.709148
 H         1.635488        -1.774579         1.137265
 H         3.424126         0.301687        -2.405535
