19
Iteration:  3789
 C        -0.070555         0.231860        -0.353834
 C         1.376565        -0.021466         0.043681
 C         2.126038         0.715833         1.219360
 C         3.386872         0.447989         0.434292
 C         3.281322        -0.930514        -0.312877
 O         4.344915        -1.706976        -0.634106
 C         1.971963        -1.480008         0.089802
 C         2.591798         0.359010        -0.932721
 O         2.473997         1.194003        -2.029632
 H        -0.795886         0.031770         0.342036
 H        -0.160404         1.365357        -0.412757
 H        -0.322269        -0.022770        -1.440354
 H         1.730584         1.794803         0.949130
 H         1.929560         0.284135         2.252863
 H         4.359712         0.997192         0.566536
 H         4.218785        -1.880299        -1.624599
 H         1.509952        -2.182651        -0.633809
 H         2.063087        -1.980402         1.071822
 H         3.128174         1.950146        -1.997213
