19
Iteration:  4827charge 0 multiplicity 1
 C        -0.115227         0.247966        -0.437875
 C         1.359872         0.026568         0.070170
 C         2.067519         0.662886         1.325201
 C         3.409307         0.505571         0.569170
 C         3.208027        -0.845291        -0.312226
 O         4.253462        -1.526895        -0.872427
 C         1.909578        -1.478551         0.114306
 C         2.668912         0.385012        -0.745879
 O         2.781971         0.915953        -2.080009
 H        -0.862128         0.106673         0.329149
 H        -0.223978         1.228155        -0.930376
 H        -0.478376        -0.414537        -1.232198
 H         1.804574         1.800302         1.359149
 H         1.783640        -0.007730         2.177983
 H         4.421094         0.650337         0.886756
 H         4.194626        -1.124554        -1.777009
 H         1.461599        -2.059875        -0.685690
 H         1.733213        -2.115613         0.940087
 H         2.249184         1.686939        -2.120398
