19
Iteration:  3779
 C        -0.043820         0.242499        -0.352552
 C         1.422526        -0.069838         0.060741
 C         2.138090         0.702851         1.235322
 C         3.398788         0.508655         0.378985
 C         3.234337        -0.907479        -0.293978
 O         4.340776        -1.692927        -0.580263
 C         1.923608        -1.536142         0.081501
 C         2.555834         0.346656        -0.922836
 O         2.475844         1.251198        -2.107175
 H        -0.651319        -0.184491         0.377842
 H        -0.267643         1.362901        -0.345907
 H        -0.226839        -0.159340        -1.407290
 H         1.809701         1.839323         1.423535
 H         2.079096         0.364072         2.344195
 H         4.478298         0.773816         0.428365
 H         4.309546        -2.068111        -1.453210
 H         1.624127        -2.046147        -0.854244
 H         1.748019        -2.200339         0.914913
 H         3.207466         1.967749        -1.972125
