19
Iteration:  4753
 C        -0.094010         0.271822        -0.210822
 C         1.364076         0.071137         0.018155
 C         2.042932         0.660793         1.318386
 C         3.361571         0.381499         0.450957
 C         3.198249        -0.938817        -0.412983
 O         4.452882        -1.570994        -0.553922
 C         1.848019        -1.448330        -0.040470
 C         2.618130         0.397801        -0.893626
 O         2.592250         1.083641        -2.166913
 H        -0.624210        -0.534643         0.295248
 H        -0.501484         1.292607         0.208252
 H        -0.401911         0.437233        -1.338347
 H         1.817099         1.652956         1.364283
 H         2.039505         0.135994         2.196141
 H         4.345797         0.829892         0.511503
 H         4.609085        -2.271846        -1.332756
 H         1.451942        -1.836707        -1.001437
 H         1.695976        -2.238819         0.776122
 H         3.511766         1.611666        -2.198233
