19
Iteration:  3658charge 0 multiplicity 1
 C        -0.096600         0.201295        -0.274930
 C         1.351652         0.065348         0.057437
 C         2.047997         0.647900         1.307928
 C         3.343235         0.459081         0.553234
 C         3.169069        -0.819438        -0.344765
 O         4.245354        -1.401631        -0.950251
 C         1.854332        -1.426555         0.106692
 C         2.617463         0.457538        -0.755867
 O         2.867164         0.735313        -2.127677
 H        -0.666654        -0.141461         0.544365
 H        -0.262997         1.231727        -0.676487
 H        -0.368435        -0.641172        -0.997620
 H         1.833828         1.628114         1.606553
 H         1.916653         0.030682         2.194365
 H         4.348358         0.648326         0.940777
 H         4.259155        -0.807757        -1.711955
 H         1.405305        -2.104411        -0.665060
 H         1.838399        -1.783512         1.109892
 H         3.187770         1.603261        -2.202142
