19
Iteration:  3923charge 0 multiplicity 1
 C        -0.167375         0.314555        -0.175549
 C         1.275772        -0.026550         0.140804
 C         2.105099         0.683996         1.263086
 C         3.297909         0.516827         0.380581
 C         3.206677        -0.924825        -0.336971
 O         4.443103        -1.460170        -0.694988
 C         1.845541        -1.500059         0.005424
 C         2.594548         0.354769        -0.904124
 O         2.809429         0.883965        -2.156793
 H        -0.801861        -0.288101         0.462027
 H        -0.518095         1.382675         0.082672
 H        -0.316168         0.190498        -1.266499
 H         1.718955         1.747103         1.492811
 H         1.897420         0.177637         2.258585
 H         4.367257         0.830646         0.429609
 H         4.462312        -1.502630        -1.627731
 H         1.262184        -1.962821        -0.790457
 H         1.715814        -2.186818         0.870448
 H         3.017983         1.828727        -2.063936
