19
Iteration:   972charge 0 multiplicity 1
 C        -0.106176         0.343629        -0.317324
 C         1.321199        -0.054377         0.076553
 C         2.129611         0.705268         1.248863
 C         3.394717         0.568307         0.415302
 C         3.282396        -0.883106        -0.309569
 O         4.362451        -1.405777        -0.948170
 C         1.912634        -1.463833         0.209185
 C         2.589114         0.285649        -0.785870
 O         2.596163         0.787465        -2.126955
 H        -0.759541         0.207728         0.626128
 H        -0.202755         1.378642        -0.517236
 H        -0.594609        -0.146835        -1.088691
 H         1.819156         1.643716         1.643103
 H         2.183512         0.019250         2.209710
 H         4.373745         1.175498         0.549714
 H         5.243813        -1.569629        -0.367190
 H         1.411320        -2.111532        -0.473781
 H         1.969822        -1.866947         1.185194
 H         1.673580         1.168474        -2.327112
