19
Iteration:  4164
 C        -0.009709         0.268965        -0.323261
 C         1.380452         0.041122         0.074306
 C         1.971864         0.752815         1.217753
 C         3.316832         0.510384         0.443321
 C         3.218212        -0.949724        -0.420280
 O         4.363384        -1.658031        -0.756470
 C         1.938221        -1.540670         0.145520
 C         2.633281         0.320829        -0.849065
 O         2.601955         1.080257        -2.026485
 H        -0.769000         0.033932         0.457768
 H        -0.300027         1.325481        -0.494318
 H        -0.196099        -0.255704        -1.267351
 H         1.613971         1.871333         1.043879
 H         1.950711         0.495510         2.368465
 H         4.332572         0.880074         0.571041
 H         4.703492        -1.521690        -1.621426
 H         1.398372        -2.202774        -0.522080
 H         2.079395        -2.096804         1.089329
 H         3.083798         1.891134        -1.857926
