19
Iteration:   748charge 0 multiplicity 1
 C        -0.098186         0.298818        -0.057245
 C         1.300582        -0.013080         0.115927
 C         1.990900         0.725767         1.255811
 C         3.408771         0.513584         0.451322
 C         3.195198        -0.869206        -0.324887
 O         4.330624        -1.363053        -0.931415
 C         1.975952        -1.459430         0.135856
 C         2.539495         0.384224        -0.910425
 O         2.752339         0.786160        -2.195832
 H        -0.727195        -0.236704         0.559165
 H        -0.357337         1.401311         0.013762
 H        -0.369005        -0.035440        -1.166115
 H         1.826165         1.877413         1.042976
 H         1.874847         0.401818         2.340016
 H         4.293980         1.216881         0.604786
 H         4.897980        -2.115436        -0.365953
 H         1.482776        -2.203574        -0.579099
 H         2.021264        -1.994575         1.049064
 H         2.712453        -0.013812        -2.771203
