19
Iteration:  2422
 C        -0.078516         0.221737        -0.403497
 C         1.304435        -0.068058         0.064425
 C         2.183409         0.605233         1.272726
 C         3.342241         0.550375         0.399042
 C         3.269617        -0.833629        -0.239058
 O         4.382679        -1.603537        -0.710010
 C         1.879969        -1.499351         0.019179
 C         2.512307         0.430395        -0.803065
 O         2.614691         1.089748        -2.051117
 H        -0.808914        -0.577774         0.184114
 H        -0.444970         1.200716         0.023144
 H        -0.275389         0.244273        -1.561502
 H         1.768527         1.611588         1.451686
 H         2.218219        -0.021697         2.152234
 H         4.329865         1.214923         0.398943
 H         4.397525        -1.654931        -1.586350
 H         1.448901        -2.036028        -0.896177
 H         1.755798        -2.152671         0.899996
 H         3.424435         1.540903        -1.900879
