19
Iteration:   473charge 0 multiplicity 1
 C        -0.052280         0.196832        -0.182772
 C         1.351242        -0.085278         0.168243
 C         2.172160         0.773703         1.187909
 C         3.416390         0.517754         0.383712
 C         3.167260        -0.857061        -0.337291
 O         4.262595        -1.593870        -0.786658
 C         1.899382        -1.454490         0.181242
 C         2.598499         0.405654        -0.936313
 O         2.639744         1.036588        -2.176107
 H        -0.803062        -0.044413         0.537597
 H        -0.123800         1.280291        -0.394438
 H        -0.434195        -0.297219        -1.188268
 H         1.765147         1.749868         1.181321
 H         2.200989         0.456849         2.201723
 H         4.490848         0.919748         0.503727
 H         5.211644        -1.582208        -0.186179
 H         1.505349        -2.215402        -0.680137
 H         1.942405        -1.821393         1.240405
 H         1.908524         0.536189        -2.696611
