19
Iteration:   832charge 0 multiplicity 1
 C        -0.077375         0.226989        -0.261948
 C         1.387244         0.002140        -0.013829
 C         2.107334         0.749507         1.116358
 C         3.430586         0.533239         0.329908
 C         3.278067        -0.935991        -0.339663
 O         4.379783        -1.650930        -0.757741
 C         1.945146        -1.492164         0.247405
 C         2.595569         0.322229        -0.872992
 O         2.384560         1.074682        -2.012802
 H        -0.688501         0.085984         0.738923
 H        -0.312549         1.268107        -0.524032
 H        -0.467167        -0.358562        -1.135844
 H         1.962821         1.839999         1.267141
 H         1.944285         0.375480         2.114065
 H         4.383306         1.143510         0.616834
 H         5.153470        -1.122773        -0.645831
 H         1.551840        -2.098570        -0.550485
 H         1.836598        -1.895245         1.381868
 H         3.132779         1.131781        -2.702595
