19
Iteration:    20charge 0 multiplicity 1
 C        -0.008652         0.227145        -0.263031
 C         1.387962        -0.004298         0.139864
 C         2.112666         0.783602         1.267572
 C         3.370516         0.531745         0.381797
 C         3.217393        -0.890056        -0.363111
 O         4.434150        -1.618717        -0.731054
 C         1.956836        -1.478328         0.189042
 C         2.560595         0.399281        -0.934910
 O         2.392166         1.033920        -2.238988
 H        -0.774722        -0.397265         0.360016
 H        -0.280042         1.280340        -0.152922
 H        -0.159199        -0.023100        -1.233118
 H         1.826666         1.780290         1.179311
 H         2.013980         0.334381         2.231114
 H         4.387933         0.850925         0.493874
 H         4.740363        -2.009073         0.153012
 H         1.401953        -2.083710        -0.484768
 H         1.972359        -1.902525         1.230707
 H         3.209092         0.731111        -2.576468
