19
Iteration:  1940
 C        -0.128496         0.247487        -0.244485
 C         1.343592        -0.051859         0.014446
 C         2.053412         0.672232         1.250292
 C         3.337800         0.395177         0.490112
 C         3.175281        -0.926854        -0.381681
 O         4.517146        -1.385760        -0.730427
 C         1.863520        -1.546285         0.063837
 C         2.551647         0.335733        -0.882074
 O         2.641253         1.088981        -2.050465
 H        -0.829159         0.277831         0.684408
 H        -0.142457         1.279852        -0.416749
 H        -0.559213        -0.320470        -1.137652
 H         1.807792         1.707470         1.191839
 H         1.930824         0.098819         2.196632
 H         4.391736         0.633690         0.466781
 H         4.345057        -1.520231        -1.750508
 H         1.320736        -2.232390        -0.646737
 H         1.992519        -1.766899         1.139662
 H         3.582395         1.116223        -2.257024
