19
Iteration:   327charge 0 multiplicity 1
 C        -0.218260         0.267817        -0.006770
 C         1.285083         0.016095         0.102981
 C         2.070145         0.788776         1.254021
 C         3.358629         0.539475         0.364174
 C         3.206863        -0.879753        -0.296897
 O         4.296528        -1.467290        -1.013144
 C         1.874438        -1.453911         0.198134
 C         2.622750         0.343435        -0.901526
 O         2.856837         0.841989        -2.208175
 H        -0.761981        -0.549281         0.624568
 H        -0.575297         1.203835         0.424923
 H        -0.551351         0.215248        -0.990070
 H         1.696281         1.834838         1.036673
 H         1.884574         0.498128         2.276173
 H         4.309609         1.017744         0.459445
 H         5.080997        -1.656054        -0.308001
 H         1.522776        -2.201923        -0.500103
 H         1.835637        -1.961782         1.255490
 H         3.444446         0.173906        -2.627553
