19
Iteration:  1046charge 0 multiplicity 1
 C        -0.199542         0.074331        -0.120328
 C         1.353784         0.016473         0.005675
 C         2.150635         0.768523         1.127667
 C         3.380883         0.486718         0.318264
 C         3.291898        -0.867274        -0.337971
 O         4.441441        -1.549741        -0.690466
 C         1.980593        -1.450151         0.203899
 C         2.538697         0.268243        -0.991761
 O         2.500976         1.170590        -2.096060
 H        -0.847183        -0.274735         0.729499
 H        -0.339480         1.195266        -0.095261
 H        -0.644340        -0.157835        -1.099426
 H         1.796171         1.801148         1.163447
 H         2.128458         0.390046         2.142794
 H         4.420365         1.046238         0.268228
 H         4.319886        -2.613347        -0.411068
 H         1.562842        -2.094103        -0.643884
 H         1.892532        -1.862887         1.241623
 H         3.402248         1.111172        -2.484654
