19
Iteration:  3981
 C        -0.021391         0.209814        -0.394008
 C         1.377282        -0.038776         0.122012
 C         2.108345         0.784854         1.246855
 C         3.374438         0.485618         0.506574
 C         3.247103        -0.880105        -0.338985
 O         4.398840        -1.696519        -0.762922
 C         1.906237        -1.467887         0.101059
 C         2.554593         0.387230        -0.843140
 O         2.589998         1.109528        -2.075315
 H        -0.720296        -0.157748         0.270408
 H        -0.145118         1.237270        -0.649591
 H        -0.122302        -0.468021        -1.269637
 H         1.819270         1.884127         0.905332
 H         1.806130         0.350095         2.258991
 H         4.307713         0.997681         0.663149
 H         3.951702        -2.366969        -1.450709
 H         1.270979        -1.937305        -0.654202
 H         1.782798        -1.949775         1.071779
 H         2.412022         2.059570        -1.836089
