19
Iteration:  3376charge 0 multiplicity 1
 C        -0.149880         0.366332        -0.255632
 C         1.284130         0.002816         0.069452
 C         2.138753         0.619234         1.187810
 C         3.312143         0.462891         0.402336
 C         3.208936        -0.930920        -0.418245
 O         4.476673        -1.464335        -0.682972
 C         1.877972        -1.514831         0.113352
 C         2.590286         0.291554        -0.930064
 O         2.699912         1.037604        -2.086417
 H        -0.806288        -0.323421         0.313924
 H        -0.305547         1.415917         0.043975
 H        -0.490447         0.190543        -1.311828
 H         1.886508         1.610402         1.460994
 H         2.001983         0.147321         2.123198
 H         4.362281         0.816315         0.591693
 H         4.327444        -2.421737        -1.031991
 H         1.342365        -2.127477        -0.632470
 H         1.925123        -1.962995         1.123977
 H         2.526626         1.948842        -1.708011
