19
Iteration:  1461charge 0 multiplicity 1
 C        -0.139958         0.056965        -0.228289
 C         1.369170        -0.039101         0.133144
 C         2.117818         0.739828         1.187554
 C         3.337619         0.547569         0.396030
 C         3.275911        -0.830955        -0.383045
 O         4.422178        -1.596257        -0.646043
 C         1.997703        -1.483590         0.110684
 C         2.550648         0.397473        -0.943434
 O         2.505274         1.097007        -2.128983
 H        -0.823695        -0.374738         0.506698
 H        -0.408679         1.175990        -0.282873
 H        -0.363566        -0.377505        -1.274979
 H         1.893293         1.890191         1.237647
 H         1.993936         0.322314         2.152465
 H         4.426021         0.931748         0.585183
 H         4.257547        -1.898557        -1.476428
 H         1.578771        -2.152951        -0.681657
 H         2.079259        -2.015755         1.063363
 H         3.153604         1.858376        -2.001406
