19
Iteration:  2002
 C        -0.092703         0.130583        -0.267201
 C         1.355148        -0.020650         0.032423
 C         2.049287         0.718211         1.205154
 C         3.419971         0.542252         0.522479
 C         3.295480        -0.829891        -0.340254
 O         4.355678        -1.685330        -0.755106
 C         1.944006        -1.480092         0.034616
 C         2.603521         0.470173        -0.869362
 O         2.657217         1.120515        -2.051246
 H        -0.704315        -0.657895         0.305214
 H        -0.450426         1.153360        -0.154505
 H        -0.223454         0.008905        -1.355613
 H         1.696482         1.808786         1.214266
 H         1.805924         0.180763         2.156420
 H         4.282726         0.954514         0.855341
 H         3.781893        -2.388444        -1.421040
 H         1.456270        -1.878092        -0.819909
 H         2.050977        -2.193743         0.855694
 H         1.950050         1.714887        -1.849358
