19
Iteration:  4747
 C        -0.095591         0.265117        -0.217502
 C         1.361674         0.091057         0.063473
 C         2.063500         0.666956         1.279492
 C         3.321312         0.425000         0.410877
 C         3.218360        -0.945331        -0.436807
 O         4.452951        -1.589804        -0.515806
 C         1.828471        -1.466696        -0.090728
 C         2.639274         0.404923        -0.907808
 O         2.593994         1.086757        -2.147699
 H        -0.597377        -0.509960         0.397589
 H        -0.407919         1.122721         0.297613
 H        -0.309277         0.323822        -1.224970
 H         1.733444         1.787266         1.497298
 H         2.095835         0.062754         2.308395
 H         4.343106         0.749213         0.685123
 H         4.288514        -2.119078        -1.303431
 H         1.484104        -1.815439        -1.075458
 H         1.848394        -2.204943         0.701859
 H         3.459392         1.393432        -2.180853
