19
Iteration:    24
 C        -0.027714         0.233507        -0.261382
 C         1.409251        -0.003977         0.123521
 C         2.160560         0.777791         1.230686
 C         3.365314         0.526020         0.407757
 C         3.220484        -0.883925        -0.379629
 O         4.421869        -1.621011        -0.715630
 C         1.969908        -1.464462         0.191483
 C         2.567000         0.370716        -0.917169
 O         2.355269         1.021596        -2.220125
 H        -0.735072        -0.367122         0.227341
 H        -0.334596         1.279037        -0.126706
 H        -0.123081         0.002842        -1.417499
 H         1.721584         1.840285         1.315115
 H         2.060830         0.347173         2.249143
 H         4.400362         0.921961         0.469881
 H         4.677374        -2.017361         0.241145
 H         1.455452        -2.166314        -0.529744
 H         1.894555        -1.874240         1.183763
 H         3.297422         0.987091        -2.694332
