19
Iteration:  1418
 C        -0.148373         0.044045        -0.161533
 C         1.325291        -0.015542         0.015776
 C         2.135326         0.699476         1.178860
 C         3.395976         0.592162         0.312296
 C         3.287901        -0.864403        -0.322016
 O         4.354923        -1.629361        -0.725910
 C         1.974187        -1.444186         0.132511
 C         2.595347         0.362300        -0.956816
 O         2.511314         1.115617        -2.118148
 H        -0.658694        -0.573376         0.707167
 H        -0.743168         1.022830        -0.295581
 H        -0.281856        -0.376206        -1.221582
 H         1.832306         1.836430         1.292601
 H         2.135649         0.327426         2.182620
 H         4.425856         1.073433         0.627662
 H         5.036131        -1.609716         0.047212
 H         1.570014        -2.101344        -0.657851
 H         1.905702        -1.908385         1.099358
 H         2.860045         2.068943        -1.981198
