19
Iteration:  3804
 C        -0.086358         0.315125        -0.378427
 C         1.364238        -0.056576         0.010044
 C         2.016038         0.717539         1.129266
 C         3.383506         0.464845         0.436887
 C         3.262521        -0.903018        -0.400809
 O         4.421357        -1.692561        -0.754099
 C         1.930259        -1.446509         0.193652
 C         2.610442         0.368098        -0.814969
 O         2.521390         1.098618        -1.963622
 H        -0.693993        -0.024705         0.598712
 H        -0.394899         1.387533        -0.541837
 H        -0.193882        -0.222389        -1.304500
 H         2.003132         1.799418         1.322896
 H         1.879903         0.421610         2.202488
 H         4.381350         0.792428         0.562015
 H         4.413700        -1.938412        -1.613039
 H         1.530464        -2.232311        -0.437721
 H         1.827765        -1.883759         1.204179
 H         3.126936         1.913013        -1.918944
