19
Iteration:  4889charge 0 multiplicity 1
 C        -0.170122         0.362172        -0.141590
 C         1.307587        -0.060317        -0.020183
 C         2.026838         0.586669         1.244623
 C         3.287155         0.488918         0.384110
 C         3.174521        -0.870515        -0.316920
 O         4.410795        -1.454707        -0.683255
 C         1.866106        -1.589199         0.027668
 C         2.554843         0.389559        -0.927011
 O         2.902774         0.975481        -2.112250
 H        -0.686754         0.151683         0.896342
 H        -0.199077         1.488201        -0.132297
 H        -0.756469        -0.036922        -1.040626
 H         1.737995         1.650251         1.166777
 H         1.973804         0.032197         2.225749
 H         4.233010         0.926271         0.658531
 H         4.452589        -1.935456        -1.573102
 H         1.487708        -2.097338        -0.920827
 H         1.863065        -2.128710         1.061672
 H         3.056654         1.955118        -1.927625
