19
Iteration:  3492charge 0 multiplicity 1
 C        -0.100548         0.306428        -0.252181
 C         1.306632        -0.004422         0.112175
 C         2.017533         0.711021         1.223737
 C         3.359227         0.423755         0.459167
 C         3.197148        -0.933623        -0.333514
 O         4.396764        -1.474481        -0.906455
 C         1.853915        -1.480156         0.194126
 C         2.548517         0.311420        -0.866837
 O         2.810711         0.947575        -2.034479
 H        -0.965875        -0.004838         0.414784
 H        -0.148276         1.316021        -0.754942
 H        -0.444195        -0.457331        -1.099617
 H         1.890917         1.731028         1.305498
 H         1.905672         0.290121         2.249825
 H         4.320759         1.002807         0.351962
 H         4.392441        -1.398545        -1.966651
 H         1.409062        -2.072790        -0.636839
 H         1.835600        -1.835897         1.210438
 H         3.035904         1.868225        -1.759119
