19
Iteration:  4702
 C        -0.121291         0.292510        -0.243607
 C         1.327613         0.012782        -0.025321
 C         2.014115         0.618195         1.252127
 C         3.305034         0.479060         0.458559
 C         3.288263        -0.894895        -0.331064
 O         4.429706        -1.617325        -0.663622
 C         1.911947        -1.475256         0.037549
 C         2.573201         0.374829        -0.931773
 O         2.678904         1.181374        -2.057414
 H        -0.715467        -0.096192         0.622216
 H        -0.410753         1.292316        -0.310850
 H        -0.334222        -0.099655        -1.197447
 H         1.886593         1.760938         1.446197
 H         1.962361        -0.081505         2.258810
 H         4.318744         0.759690         0.685392
 H         4.225053        -2.235391        -1.375340
 H         1.446362        -2.010101        -0.805090
 H         1.907692        -1.887950         1.044962
 H         3.127235         0.725356        -2.728444
