19
Iteration:   932charge 0 multiplicity 1
 C        -0.155399         0.222106        -0.130603
 C         1.327210        -0.064153         0.127928
 C         2.136663         0.747199         1.232846
 C         3.336494         0.570603         0.410384
 C         3.163823        -0.787025        -0.352596
 O         4.319493        -1.538403        -0.834347
 C         1.964283        -1.515758         0.100697
 C         2.636033         0.384231        -0.894061
 O         2.717171         0.850668        -2.171482
 H        -0.822848        -0.074986         0.682099
 H        -0.265697         1.367411        -0.093856
 H        -0.495415        -0.133058        -1.197116
 H         2.005938         1.901960         1.130063
 H         2.105666         0.488731         2.278949
 H         4.340948         0.932382         0.519512
 H         5.014796        -1.069848        -0.600722
 H         1.459890        -2.152425        -0.655048
 H         2.049981        -2.090568         1.121409
 H         1.848925         1.167422        -2.338464
