19
Iteration:  1299charge 0 multiplicity 1
 C        -0.167414         0.135483        -0.192366
 C         1.328606        -0.051752         0.090508
 C         2.086184         0.714486         1.204161
 C         3.457026         0.574719         0.417671
 C         3.291933        -0.813087        -0.269285
 O         4.340346        -1.372229        -0.908975
 C         1.954766        -1.476217         0.168222
 C         2.545023         0.366709        -0.891641
 O         2.657877         0.819376        -2.131921
 H        -0.903854        -0.325964         0.563334
 H        -0.435356         1.179791        -0.120823
 H        -0.480347        -0.205052        -1.157603
 H         1.740387         1.810565         1.189526
 H         1.814990         0.229351         2.169466
 H         4.420809         1.100237         0.470049
 H         4.941025        -1.839209        -0.186876
 H         1.617956        -2.046480        -0.725371
 H         1.909037        -2.064861         1.101487
 H         2.190819         1.631001        -2.289083
