19
Iteration:  4618charge 0 multiplicity 1
 C        -0.100910         0.293105        -0.329854
 C         1.346240        -0.041125         0.053928
 C         1.983830         0.619652         1.268118
 C         3.352131         0.492340         0.521539
 C         3.264206        -0.845719        -0.346961
 O         4.285892        -1.629389        -0.739857
 C         1.956140        -1.482646         0.047749
 C         2.642575         0.371469        -0.849859
 O         2.721928         1.158583        -2.084175
 H        -0.663555         0.093961         0.656643
 H        -0.195987         1.321116        -0.843510
 H        -0.607601        -0.486102        -0.971070
 H         1.793209         1.735646         1.309145
 H         1.818428         0.127092         2.192925
 H         4.373459         0.743752         0.769289
 H         4.858654        -1.007668        -1.349000
 H         1.381444        -2.214928        -0.600921
 H         2.042841        -1.982066         1.031967
 H         2.480841         0.351757        -2.686063
