19
Iteration:  1102
 C        -0.169348         0.079936        -0.163059
 C         1.325506         0.069674         0.104372
 C         2.127943         0.729975         1.193189
 C         3.376888         0.569861         0.354639
 C         3.303524        -0.839840        -0.253384
 O         4.409524        -1.518679        -0.719460
 C         1.961143        -1.413385         0.131176
 C         2.522901         0.363391        -0.900911
 O         2.690747         0.956867        -2.180786
 H        -0.689255        -0.536748         0.670374
 H        -0.663674         1.051243        -0.156961
 H        -0.423159        -0.405246        -1.081902
 H         1.728691         1.696708         1.184678
 H         2.201884         0.292625         2.196079
 H         4.240090         1.214953         0.378793
 H         4.083910        -1.893848        -1.665919
 H         1.579451        -2.140723        -0.663173
 H         1.898453        -2.005378         1.098121
 H         1.806051         1.035934        -2.448737
