19
Iteration:  1151charge 0 multiplicity 1
 C        -0.061598         0.291865        -0.252459
 C         1.354603        -0.085779         0.137544
 C         2.046432         0.743266         1.272497
 C         3.291293         0.590181         0.378706
 C         3.306535        -0.796313        -0.302594
 O         4.428494        -1.416552        -0.874706
 C         1.987793        -1.536408         0.200860
 C         2.549147         0.319209        -0.866238
 O         2.500288         0.724618        -2.140286
 H        -0.795200         0.172312         0.557881
 H        -0.015058         1.418808        -0.409145
 H        -0.558448        -0.257556        -1.131322
 H         1.741174         1.817368         1.463779
 H         1.896606         0.166190         2.203064
 H         4.323837         1.087853         0.582632
 H         4.876978        -0.789140        -1.294307
 H         1.627503        -2.169808        -0.567346
 H         1.941181        -2.152029         1.086111
 H         3.140323         1.481236        -2.377518
