19
Iteration:   852charge 0 multiplicity 1
 C        -0.097903         0.187768        -0.187367
 C         1.355564        -0.052949         0.087822
 C         2.129138         0.801600         1.142885
 C         3.346759         0.493000         0.306726
 C         3.273378        -0.909050        -0.297683
 O         4.385693        -1.694079        -0.681314
 C         1.981273        -1.452790         0.134443
 C         2.525589         0.240107        -0.989359
 O         2.484893         1.192873        -2.071279
 H        -0.740463        -0.243590         0.719922
 H        -0.398679         1.184945        -0.354941
 H        -0.425675        -0.392174        -1.000690
 H         1.840977         1.826284         1.086349
 H         2.268495         0.592807         2.268652
 H         4.344476         1.008065         0.082127
 H         5.065072        -1.137996        -0.726590
 H         1.413469        -2.068664        -0.536739
 H         1.903832        -1.709196         1.225638
 H         3.359396         1.288976        -2.396001
