19
Iteration:   902charge 0 multiplicity 1
 C        -0.108995         0.078951        -0.064367
 C         1.346181         0.058929         0.016424
 C         2.134690         0.709012         1.190706
 C         3.383177         0.556858         0.367824
 C         3.228550        -0.778748        -0.286311
 O         4.346713        -1.725322        -0.720080
 C         1.896560        -1.394014         0.139472
 C         2.584781         0.377313        -0.992639
 O         2.628052         0.981970        -2.232849
 H        -0.521897        -0.419933         0.758439
 H        -0.516712         1.155777         0.032351
 H        -0.647208        -0.324586        -1.024165
 H         2.023892         1.790930         1.444460
 H         1.979744         0.208542         2.104190
 H         4.167209         1.207016         0.295331
 H         5.305150        -1.197013        -0.531079
 H         1.439339        -1.884046        -0.782807
 H         1.787903        -1.898066         1.097583
 H         2.541946         1.972345        -1.915703
