19
Iteration:  3653
 C        -0.089521         0.224141        -0.306486
 C         1.384531         0.074264         0.068780
 C         2.048914         0.649565         1.336175
 C         3.327937         0.447719         0.535915
 C         3.147712        -0.824169        -0.345173
 O         4.251938        -1.405185        -0.945638
 C         1.846764        -1.466534         0.137497
 C         2.620519         0.457255        -0.792994
 O         2.861850         0.749053        -2.101882
 H        -0.608708        -0.219428         0.650398
 H        -0.388530         1.184277        -0.676023
 H        -0.351272        -0.571009        -0.984138
 H         1.790328         1.863695         1.546246
 H         1.846455        -0.067919         2.224161
 H         4.319235         0.799831         0.813919
 H         4.199216        -0.868586        -1.841772
 H         1.587598        -2.049288        -0.755242
 H         1.823258        -1.971255         1.159425
 H         3.257153         1.675029        -2.286131
