19
Iteration:  3480
 C        -0.146954         0.236808        -0.306109
 C         1.297507        -0.041833         0.137940
 C         2.167570         0.770087         1.289313
 C         3.308917         0.531048         0.425365
 C         3.189919        -0.902130        -0.325416
 O         4.323215        -1.477011        -0.920077
 C         1.838295        -1.572651         0.141404
 C         2.552155         0.359739        -0.792811
 O         2.888137         0.919630        -2.052616
 H        -0.856718         0.233741         0.555162
 H        -0.243573         1.311165        -0.670883
 H        -0.325309        -0.456944        -1.249753
 H         1.792317         1.724029         1.220510
 H         2.043879         0.284664         2.276437
 H         4.355541         0.819913         0.654983
 H         4.313384        -1.078670        -1.773153
 H         1.266002        -2.192899        -0.568698
 H         1.686311        -2.128119         1.069564
 H         2.840913         1.849823        -2.088082
