19
Iteration:  3907
 C        -0.166853         0.311447        -0.105521
 C         1.325517        -0.025984         0.000284
 C         2.067052         0.691051         1.241022
 C         3.352843         0.500717         0.494197
 C         3.155502        -0.825371        -0.356850
 O         4.370298        -1.452064        -0.678564
 C         1.869123        -1.501793        -0.067409
 C         2.586182         0.415777        -0.877088
 O         2.819048         0.778431        -2.151132
 H        -0.791790        -0.375131         0.789179
 H        -0.249985         1.351830         0.213460
 H        -0.570261         0.221618        -1.149852
 H         1.805290         1.689584         1.145390
 H         2.111285         0.206731         2.194538
 H         4.337746         0.753818         0.882820
 H         4.566859        -1.371694        -1.721056
 H         1.702063        -2.036547        -1.042466
 H         1.760906        -2.130774         0.823188
 H         2.764944         1.700759        -2.106618
