19
Iteration:  4636
 C        -0.085461         0.238819        -0.378688
 C         1.311938         0.023378        -0.009521
 C         2.029517         0.683120         1.287251
 C         3.346650         0.488408         0.491637
 C         3.217861        -0.904640        -0.330900
 O         4.416905        -1.597379        -0.832971
 C         1.847010        -1.507810         0.144178
 C         2.607030         0.438654        -0.788056
 O         2.765485         1.071492        -1.965494
 H        -0.845125         0.363119         0.473159
 H        -0.096747         1.074402        -1.046155
 H        -0.515917        -0.505128        -1.019056
 H         1.782785         1.767513         1.243586
 H         2.070741         0.033106         2.227530
 H         4.291078         0.956788         0.726472
 H         4.520708        -1.333361        -1.859427
 H         1.487047        -2.153252        -0.665682
 H         1.751462        -2.012240         1.114187
 H         2.086457         0.736131        -2.701626
