19
Iteration:  1432
 C        -0.107025        -0.031614        -0.220288
 C         1.411806        -0.008348         0.051467
 C         2.131007         0.732043         1.163606
 C         3.368093         0.638762         0.341996
 C         3.289395        -0.821399        -0.341025
 O         4.317945        -1.743115        -0.660725
 C         1.939583        -1.397481         0.102124
 C         2.592694         0.436139        -0.939261
 O         2.484478         1.124360        -2.113053
 H        -0.728741        -0.662659         0.628703
 H        -0.370638         0.985235        -0.084057
 H        -0.455885        -0.558891        -1.054350
 H         1.809498         1.763368         1.382364
 H         2.143485         0.026355         2.054639
 H         4.381723         1.110471         0.462786
 H         5.163784        -1.252869        -0.618363
 H         1.540495        -2.011774        -0.682619
 H         1.864836        -1.920816         1.059864
 H         3.032616         1.872104        -1.982029
