19
Iteration:  3832charge 0 multiplicity 1
 C        -0.069112         0.257290        -0.323703
 C         1.333853        -0.075695         0.119449
 C         2.082834         0.723601         1.254882
 C         3.316589         0.429396         0.457605
 C         3.197339        -0.906627        -0.288796
 O         4.331492        -1.450751        -0.808236
 C         1.848314        -1.493966         0.149315
 C         2.606831         0.322491        -0.890797
 O         2.730569         1.004022        -2.106202
 H        -0.763932         0.230229         0.448861
 H        -0.180084         1.269303        -0.748499
 H        -0.174081        -0.366144        -1.248561
 H         2.083950         1.818101         1.335649
 H         2.170555         0.269061         2.254938
 H         4.337994         0.845118         0.561770
 H         4.161141        -1.694312        -1.664789
 H         1.334993        -2.178684        -0.577242
 H         1.810972        -1.999060         1.122056
 H         3.159287         1.901147        -1.889759
