19
Iteration:  4631charge 0 multiplicity 1
 C        -0.098574         0.252388        -0.359590
 C         1.343393         0.002885        -0.000981
 C         2.049295         0.668913         1.267490
 C         3.332176         0.490157         0.515858
 C         3.179377        -0.902640        -0.343274
 O         4.404892        -1.624576        -0.824897
 C         1.885835        -1.526777         0.122610
 C         2.616909         0.490604        -0.799076
 O         2.739797         1.073807        -1.998010
 H        -0.756603         0.452787         0.456142
 H        -0.291608         1.225206        -0.927778
 H        -0.406129        -0.586831        -1.043571
 H         1.636777         1.682347         1.336860
 H         1.930540         0.134986         2.249256
 H         4.318129         0.896261         0.803024
 H         4.656641        -1.275379        -1.644737
 H         1.635047        -2.243720        -0.679685
 H         1.722008        -1.863819         1.176979
 H         2.282571         0.714299        -2.692210
