19
Iteration:  3677charge 0 multiplicity 1
 C        -0.226235         0.252207        -0.261525
 C         1.311194         0.001381         0.111895
 C         2.056340         0.626269         1.322955
 C         3.407159         0.466686         0.566806
 C         3.243289        -0.804058        -0.261777
 O         4.288469        -1.437295        -0.960379
 C         1.821441        -1.453538         0.111045
 C         2.652180         0.413572        -0.845719
 O         2.896422         0.780969        -2.146547
 H        -0.886696         0.024098         0.579634
 H        -0.336124         1.271152        -0.540355
 H        -0.611432        -0.407042        -1.107258
 H         1.724437         1.800829         1.277517
 H         1.853564         0.028799         2.317048
 H         4.321047         0.953006         0.759374
 H         4.510274        -0.853990        -1.640508
 H         1.559070        -1.938140        -0.855316
 H         1.740287        -2.076929         1.021959
 H         2.727708         1.688260        -2.328628
