19
Iteration:  4308
 C        -0.124470         0.200359        -0.272385
 C         1.291214         0.044818         0.118576
 C         2.053974         0.655686         1.292715
 C         3.389768         0.540666         0.470253
 C         3.195473        -0.792919        -0.263081
 O         4.239941        -1.537759        -0.910156
 C         1.861803        -1.448387         0.133004
 C         2.567595         0.426794        -0.802350
 O         2.864114         0.822618        -2.155902
 H        -0.668931        -0.607734         0.071925
 H        -0.641904         1.031331        -0.042566
 H        -0.105053         0.034348        -1.322332
 H         1.888843         1.678053         1.224569
 H         2.220486         0.105696         2.216722
 H         4.381923         0.961667         0.694842
 H         4.748538        -0.905782        -1.417167
 H         1.583770        -2.053673        -0.747720
 H         1.789128        -2.030988         1.058928
 H         3.046067         1.727231        -2.104701
