19
Iteration:  3672
 C        -0.178886         0.197309        -0.273133
 C         1.303646         0.008678         0.100748
 C         2.045546         0.626891         1.328298
 C         3.406609         0.472170         0.589670
 C         3.219007        -0.819453        -0.251205
 O         4.267408        -1.416416        -0.965161
 C         1.831282        -1.408880         0.092948
 C         2.651389         0.431377        -0.850635
 O         2.885257         0.752952        -2.141670
 H        -0.963814         0.139125         0.705332
 H        -0.415241         1.290038        -0.580511
 H        -0.504073        -0.328595        -1.130852
 H         1.793648         1.602388         1.292666
 H         1.939139         0.031878         2.162342
 H         4.464400         0.840859         0.840270
 H         4.621512        -0.825716        -1.771824
 H         1.347863        -2.012131        -0.704086
 H         1.799687        -1.980929         1.050753
 H         2.872951         1.780062        -2.298853
