19
Iteration:  1668charge 0 multiplicity 1
 C        -0.064604         0.132518        -0.338692
 C         1.389235         0.005589         0.084453
 C         2.157265         0.660406         1.340601
 C         3.389081         0.552979         0.462286
 C         3.211360        -0.847524        -0.372071
 O         4.371110        -1.590989        -0.680342
 C         1.867626        -1.439310         0.034695
 C         2.628716         0.438045        -0.879679
 O         2.549457         1.008181        -2.098300
 H        -0.818931        -0.441476         0.203640
 H        -0.442863         1.225107        -0.644348
 H        -0.122172        -0.579769        -1.269090
 H         1.773142         1.668872         1.619292
 H         2.254173         0.019581         2.226808
 H         4.346829         0.874894         0.666823
 H         4.324515        -1.478882        -1.729693
 H         1.482723        -1.954721        -0.884915
 H         1.715146        -2.022260         0.952289
 H         2.551844         2.009542        -1.957829
