19
Iteration:  3931
 C        -0.151789         0.298682        -0.223313
 C         1.295305        -0.009105         0.153868
 C         2.081574         0.661044         1.277452
 C         3.323634         0.477151         0.355229
 C         3.171183        -0.936919        -0.310802
 O         4.461490        -1.478359        -0.714345
 C         1.801769        -1.486370         0.094708
 C         2.617363         0.372831        -0.906389
 O         2.786127         0.942511        -2.169582
 H        -0.916590        -0.442468         0.446616
 H        -0.383264         1.410770         0.015672
 H        -0.219915         0.110602        -1.340023
 H         1.874892         1.629910         1.328072
 H         2.024723         0.009480         2.099350
 H         4.177730         1.129887         0.357803
 H         4.376116        -1.607889        -1.593940
 H         1.470945        -2.038899        -0.807692
 H         1.672784        -2.035287         1.043189
 H         3.034375         1.903528        -1.995615
