19
Iteration:  4984charge 0 multiplicity 1
 C        -0.105483         0.325546        -0.457071
 C         1.328429        -0.001435         0.066108
 C         2.065836         0.627627         1.280830
 C         3.381806         0.441799         0.488831
 C         3.208349        -0.905586        -0.288706
 O         4.376885        -1.610537        -0.791805
 C         1.933202        -1.461849         0.231977
 C         2.604924         0.348700        -0.847956
 O         2.628141         1.023016        -2.099585
 H        -0.925177        -0.030908         0.022915
 H        -0.279232         1.433882        -0.479630
 H        -0.142987         0.072504        -1.554886
 H         1.902637         1.757673         1.309743
 H         2.014155         0.099721         2.264833
 H         4.299896         0.991166         0.682816
 H         4.469180        -1.383192        -1.760774
 H         1.498439        -2.198713        -0.442123
 H         1.915438        -1.785547         1.246548
 H         2.897250         1.963209        -2.013882
