19
Iteration:   799charge 0 multiplicity 1
 C         0.038949         0.292488        -0.335437
 C         1.378196         0.010435         0.160595
 C         2.100870         0.733942         1.321687
 C         3.390008         0.542160         0.407308
 C         3.226751        -0.853270        -0.323849
 O         4.330689        -1.535164        -0.847984
 C         2.047493        -1.509635         0.151014
 C         2.491976         0.360668        -0.870780
 O         2.406063         0.919767        -2.151621
 H        -0.789755         0.121680         0.445224
 H         0.036023         1.290599        -0.753463
 H        -0.289431        -0.433284        -1.092505
 H         2.083917         1.817273         1.469482
 H         2.121799         0.220125         2.241074
 H         4.422866         1.034694         0.589178
 H         4.932796        -1.562380        -0.094795
 H         1.512869        -1.911473        -0.671386
 H         1.760800        -2.115287         1.087578
 H         3.051516         0.493439        -2.662316
