19
Iteration:  2723charge 0 multiplicity 1
 C         0.010558         0.404299        -0.202339
 C         1.307053        -0.180081         0.095147
 C         2.013628         0.653993         1.188903
 C         3.301361         0.532080         0.363811
 C         3.251285        -0.895197        -0.306772
 O         4.476130        -1.513959        -0.681870
 C         1.854683        -1.622258         0.022217
 C         2.531128         0.337282        -0.936004
 O         2.690154         1.045929        -2.046175
 H        -0.760495         0.315352         0.666429
 H         0.048285         1.566533        -0.434452
 H        -0.493918        -0.215190        -0.971582
 H         1.562628         1.625273         1.165568
 H         1.926821         0.490988         2.256918
 H         4.224849         1.083743         0.395871
 H         4.456396        -1.707537        -1.645330
 H         1.510524        -2.060851        -0.897732
 H         1.769714        -2.301597         0.906846
 H         2.601116         1.950427        -1.792116
