19
Iteration:  3979charge 0 multiplicity 1
 C        -0.026635         0.204153        -0.390256
 C         1.366324        -0.031246         0.107568
 C         2.099204         0.784932         1.246961
 C         3.375350         0.481638         0.517520
 C         3.254515        -0.881327        -0.354191
 O         4.385636        -1.691254        -0.762537
 C         1.912248        -1.480598         0.111944
 C         2.561571         0.401716        -0.849362
 O         2.591162         1.105816        -2.071649
 H        -0.724747        -0.142489         0.370582
 H        -0.172786         1.315949        -0.652997
 H        -0.024728        -0.440334        -1.333075
 H         1.844482         1.839520         0.907425
 H         1.838854         0.344444         2.235008
 H         4.326411         1.033231         0.660364
 H         3.993420        -2.382248        -1.440212
 H         1.266943        -1.949905        -0.624525
 H         1.810116        -1.976667         1.095823
 H         2.444040         2.000414        -1.851936
