19
Iteration:  4331
 C        -0.132518         0.192394        -0.335254
 C         1.321920         0.036236        -0.025209
 C         2.011713         0.735671         1.313434
 C         3.364033         0.536874         0.543234
 C         3.253514        -0.853883        -0.288218
 O         4.242375        -1.605790        -0.908348
 C         1.962049        -1.420481         0.141558
 C         2.649796         0.367366        -0.793787
 O         2.777203         0.874968        -2.086889
 H        -0.645374        -0.509023         0.179481
 H        -0.461761         1.109701         0.042801
 H        -0.445254         0.070210        -1.360541
 H         1.983294         1.787572         1.306944
 H         2.033318         0.109014         2.222927
 H         4.328126         0.947978         0.775728
 H         4.628304        -0.990129        -1.673643
 H         1.348424        -2.008635        -0.568693
 H         1.976281        -1.817433         1.154542
 H         2.513040         1.881127        -2.129640
