19
Iteration:  3222charge 0 multiplicity 1
 C        -0.120497         0.204520        -0.165242
 C         1.322211         0.116796        -0.011923
 C         2.087450         0.613042         1.344227
 C         3.377872         0.470608         0.481744
 C         3.191719        -0.812988        -0.324395
 O         4.363196        -1.498037        -0.677187
 C         1.845453        -1.385761        -0.059000
 C         2.622991         0.520185        -0.862850
 O         2.754527         0.761116        -2.191190
 H        -0.625188        -0.563075         0.526107
 H        -0.708744         1.119284         0.064997
 H        -0.362742        -0.234635        -1.263697
 H         1.889403         1.623380         1.595173
 H         1.971377        -0.171727         2.130186
 H         4.347915         0.691011         0.847750
 H         4.518128        -1.175065        -1.691971
 H         1.351022        -1.967913        -0.867803
 H         1.744481        -1.864958         0.897451
 H         2.805870         1.645284        -2.476486
