19
Iteration:  4132
 C        -0.138435         0.207849        -0.316183
 C         1.312574         0.003832         0.041576
 C         2.099375         0.675137         1.286651
 C         3.360035         0.501761         0.434002
 C         3.272101        -0.851853        -0.214362
 O         4.239157        -1.523821        -0.851202
 C         1.876742        -1.457174         0.148396
 C         2.573661         0.342496        -0.839410
 O         2.809263         0.913484        -2.103967
 H        -0.826500        -0.485407         0.265716
 H        -0.410338         1.317412        -0.183719
 H        -0.273122         0.115836        -1.415754
 H         1.761416         1.630789         1.313045
 H         2.100743         0.425061         2.325484
 H         4.325681         0.985931         0.416806
 H         4.661545        -1.115053        -1.675453
 H         1.619058        -2.103387        -0.675441
 H         1.812168        -1.923042         1.143655
 H         2.917133         1.870829        -2.020676
