19
Iteration:  3877charge 0 multiplicity 1
 C        -0.176140         0.281278        -0.116790
 C         1.322551         0.062890         0.000760
 C         1.979908         0.603928         1.289971
 C         3.336605         0.553434         0.538354
 C         3.246107        -0.843671        -0.249101
 O         4.424527        -1.509890        -0.827976
 C         1.837493        -1.381303         0.004543
 C         2.633843         0.399741        -0.881138
 O         2.866116         0.761102        -2.208011
 H        -0.518244        -0.037315         0.824212
 H        -0.474208         1.386096        -0.087640
 H        -0.552661        -0.122636        -1.078393
 H         1.600830         1.597178         1.564511
 H         1.868606        -0.062728         2.166170
 H         4.254102         0.915296         0.936023
 H         4.293843        -1.467380        -1.720880
 H         1.610790        -1.915122        -0.935605
 H         1.503395        -2.038694         0.819703
 H         2.349893         1.632322        -2.258870
