19
Iteration:  3195
 C        -0.141311         0.253924        -0.241138
 C         1.305294        -0.004618         0.056009
 C         2.096864         0.703127         1.253504
 C         3.335627         0.456460         0.473717
 C         3.198544        -0.897747        -0.292422
 O         4.390192        -1.399088        -0.776879
 C         1.861400        -1.505221         0.073049
 C         2.628499         0.347432        -0.887583
 O         2.789238         0.917272        -2.147840
 H        -0.930627        -0.424023         0.285153
 H        -0.494154         1.280897         0.034652
 H        -0.291746         0.003638        -1.251047
 H         1.843355         1.831909         1.406409
 H         1.961167         0.300946         2.277879
 H         4.324907         0.927024         0.746793
 H         4.113730        -2.176873        -1.451239
 H         1.395385        -2.075401        -0.745014
 H         1.823445        -2.017861         1.093373
 H         2.710371         1.847191        -2.129088
