19
Iteration:  3121charge 0 multiplicity 1
 C        -0.088440         0.154022        -0.372734
 C         1.322340         0.049766         0.082552
 C         2.244444         0.617293         1.241049
 C         3.453966         0.446828         0.424220
 C         3.180389        -0.871273        -0.368517
 O         4.367526        -1.627783        -0.564188
 C         1.849805        -1.407943        -0.008424
 C         2.615116         0.425002        -0.868296
 O         2.512182         1.081309        -2.068272
 H        -0.889489         0.038695         0.424391
 H        -0.300578         1.140466        -0.910118
 H        -0.325893        -0.755486        -0.971117
 H         1.990338         1.645789         1.416972
 H         2.145439         0.270339         2.260304
 H         4.479209         0.911629         0.559643
 H         4.529912        -1.519007        -1.561492
 H         1.395839        -2.016277        -0.834043
 H         1.697109        -1.861000         0.963462
 H         3.003706         1.949641        -2.081441
