19
Iteration:   280charge 0 multiplicity 1
 C         0.028767         0.229216        -0.207665
 C         1.426359        -0.020776         0.113415
 C         2.187680         0.823618         1.244564
 C         3.351111         0.589296         0.407251
 C         3.192178        -0.880539        -0.344226
 O         4.269921        -1.581440        -0.808555
 C         1.879273        -1.511142         0.142240
 C         2.593905         0.377675        -0.895428
 O         2.496979         0.940285        -2.198445
 H        -0.529422        -0.533967         0.277232
 H        -0.340461         1.162769         0.260093
 H        -0.200402         0.253088        -1.296691
 H         1.790693         1.861739         1.246312
 H         2.263368         0.436010         2.188316
 H         4.429132         0.963392         0.505474
 H         4.810355        -2.060469         0.040723
 H         1.186635        -2.002797        -0.514311
 H         1.788763        -2.023305         1.150203
 H         3.344587         0.943635        -2.581488
