19
Iteration:  4914charge 0 multiplicity 1
 C        -0.196955         0.313510        -0.129354
 C         1.325685         0.008993        -0.062374
 C         2.044497         0.603346         1.202034
 C         3.324739         0.419194         0.424938
 C         3.201361        -0.887129        -0.333877
 O         4.443827        -1.520072        -0.635552
 C         1.832213        -1.456027         0.024032
 C         2.661465         0.342900        -0.962113
 O         2.814025         1.047284        -2.115952
 H        -0.721955        -0.279847         0.677653
 H        -0.443132         1.308637         0.100387
 H        -0.578203         0.069093        -1.051902
 H         1.721555         1.709147         1.314985
 H         2.002954        -0.097473         2.082712
 H         4.261492         0.950901         0.612810
 H         4.459253        -2.345131        -1.251544
 H         1.452705        -2.047076        -0.852910
 H         1.694265        -1.858954         1.071603
 H         2.457345         2.046958        -1.946056
