19
Iteration:  4590
 C        -0.121311         0.314568        -0.210460
 C         1.303818        -0.057578         0.024735
 C         2.076660         0.626033         1.222282
 C         3.346636         0.578921         0.381056
 C         3.280433        -0.877101        -0.309789
 O         4.368684        -1.652101        -0.701789
 C         1.864870        -1.520375        -0.044514
 C         2.532647         0.367152        -0.869604
 O         2.707850         1.168990        -2.050175
 H        -0.640475        -0.201765         0.540801
 H        -0.430683         1.327443        -0.225854
 H        -0.450050        -0.151046        -1.139532
 H         1.781785         1.639171         1.236734
 H         2.080613        -0.011494         2.201420
 H         4.357165         1.035595         0.499204
 H         5.144566        -1.323840        -0.113954
 H         1.499595        -2.078479        -0.875363
 H         1.709257        -2.034878         0.934632
 H         3.051251         0.384715        -2.655513
