19
Iteration:  3026charge 0 multiplicity 1
 C        -0.141074         0.179955        -0.213714
 C         1.285652        -0.041391         0.172235
 C         2.154216         0.707816         1.236727
 C         3.374376         0.500956         0.442086
 C         3.173261        -0.836721        -0.279853
 O         4.335402        -1.440385        -0.771639
 C         1.807989        -1.455732         0.017369
 C         2.558382         0.434267        -0.852239
 O         2.858126         0.840883        -2.151564
 H        -0.957012        -0.401289         0.326729
 H        -0.347265         1.227749        -0.015925
 H        -0.336749        -0.029394        -1.351981
 H         1.827131         1.696226         1.474518
 H         2.087585         0.268260         2.229588
 H         4.452910         0.810922         0.693478
 H         4.336624        -1.486855        -1.750458
 H         1.418261        -1.841287        -0.959617
 H         1.755484        -2.265403         0.765150
 H         2.854441         1.768460        -2.210027
