19
Iteration:  4400charge 0 multiplicity 1
 C        -0.134813         0.305654        -0.266947
 C         1.306920         0.010597         0.043755
 C         2.119722         0.549648         1.249691
 C         3.354146         0.428792         0.385607
 C         3.203674        -0.876689        -0.341045
 O         4.522719        -1.534777        -0.605456
 C         1.850459        -1.478564         0.062116
 C         2.638968         0.388619        -0.921549
 O         2.540140         1.088856        -2.151926
 H        -0.565530         0.436929         0.689733
 H        -0.069189         1.404011        -0.617879
 H        -0.698197        -0.334609        -0.951176
 H         1.794658         1.609012         1.318271
 H         2.062684        -0.226812         2.073602
 H         4.327491         0.857580         0.672876
 H         4.378368        -2.388152        -0.903437
 H         1.514207        -2.041884        -0.844565
 H         1.804613        -1.975347         1.040525
 H         3.111784         1.888416        -2.202955
