19
Iteration:  2437charge 0 multiplicity 1
 C        -0.088228         0.204532        -0.339394
 C         1.363561        -0.028651         0.040974
 C         2.009764         0.612781         1.290884
 C         3.363690         0.642349         0.476706
 C         3.294356        -0.847281        -0.317085
 O         4.285611        -1.639785        -0.757144
 C         1.980558        -1.478354         0.056112
 C         2.616541         0.405292        -0.845454
 O         2.610260         1.054643        -2.038997
 H        -0.776997        -0.530194        -0.014247
 H        -0.394532         1.193916        -0.156761
 H        -0.067892         0.138497        -1.406359
 H         1.653909         1.586493         1.633008
 H         2.034127         0.069721         2.316480
 H         4.334995         0.929625         0.749239
 H         4.131023        -1.579997        -1.783950
 H         1.782540        -2.025823        -0.907545
 H         1.818680        -2.115817         0.975068
 H         3.398564         1.596628        -2.315384
