19
Iteration:  3472charge 0 multiplicity 1
 C        -0.117721         0.219924        -0.331575
 C         1.301133        -0.053656         0.126567
 C         2.097242         0.731856         1.324521
 C         3.385560         0.540605         0.443541
 C         3.145742        -0.890937        -0.302006
 O         4.251147        -1.468813        -0.903948
 C         1.835061        -1.534775         0.118745
 C         2.597725         0.389514        -0.826355
 O         2.899690         0.877375        -2.080581
 H        -0.846601         0.011592         0.525831
 H        -0.255927         1.269025        -0.617699
 H        -0.538603        -0.384129        -1.021776
 H         1.779827         1.815648         1.483852
 H         2.288139         0.553228         2.402796
 H         4.457230         0.829320         0.638679
 H         4.365865        -0.979239        -1.780975
 H         1.463533        -2.076367        -0.810958
 H         2.006363        -2.159252         0.992797
 H         2.668646         1.771713        -2.004982
