19
Iteration:  3089charge 0 multiplicity 1
 C        -0.122707         0.327455        -0.202890
 C         1.329595        -0.052353         0.061525
 C         2.068730         0.662313         1.232140
 C         3.351467         0.568952         0.478085
 C         3.223966        -0.895627        -0.302356
 O         4.399442        -1.562840        -0.689818
 C         1.898516        -1.576125        -0.008363
 C         2.638879         0.391728        -0.878387
 O         2.661182         1.002072        -2.148003
 H        -0.616322         0.286033         0.710788
 H        -0.203328         1.283632        -0.728181
 H        -0.650896        -0.252491        -0.987176
 H         1.709898         1.694672         1.358974
 H         1.979274        -0.020266         2.250403
 H         4.297667         1.171455         0.680872
 H         4.219445        -1.842497        -1.621642
 H         1.557743        -2.149088        -0.917662
 H         1.865209        -2.176502         0.882858
 H         2.949356         1.886048        -2.080789
