19
Iteration:  2138charge 0 multiplicity 1
 C        -0.100758         0.197119        -0.280417
 C         1.322659        -0.027140         0.095913
 C         2.130893         0.663567         1.250789
 C         3.333449         0.452376         0.461032
 C         3.196428        -0.942622        -0.330370
 O         4.262900        -1.445142        -0.935028
 C         1.851087        -1.552425         0.074402
 C         2.572887         0.419844        -0.813535
 O         2.758120         1.083329        -2.030473
 H        -0.817793         0.206850         0.625243
 H        -0.034370         1.222588        -0.747911
 H        -0.536770        -0.351305        -1.161962
 H         1.840439         1.673235         1.484264
 H         2.129702         0.145508         2.261794
 H         4.268820         0.861940         0.608521
 H         5.103646        -1.127138        -0.348621
 H         1.370770        -2.115151        -0.775820
 H         1.721880        -2.098803         1.031472
 H         3.665102         0.874560        -2.332008
