19
Iteration:  4824charge 0 multiplicity 1
 C        -0.115128         0.264045        -0.445823
 C         1.343658        -0.001517         0.092068
 C         2.067745         0.668156         1.314941
 C         3.385060         0.507090         0.566552
 C         3.214293        -0.856599        -0.339841
 O         4.266601        -1.541505        -0.872977
 C         1.931425        -1.467957         0.142181
 C         2.650125         0.401114        -0.738047
 O         2.792639         0.920324        -2.079253
 H        -0.869943         0.103228         0.362778
 H        -0.174254         1.203242        -0.889881
 H        -0.342368        -0.365841        -1.253396
 H         1.797156         1.777856         1.302076
 H         1.803522        -0.025876         2.180535
 H         4.409394         0.629561         0.904298
 H         4.173901        -1.142474        -1.818793
 H         1.451425        -1.997951        -0.754314
 H         1.662490        -2.149508         0.997984
 H         2.161371         1.759221        -2.196307
