19
Iteration:   117charge 0 multiplicity 1
 C        -0.204507         0.223968        -0.095913
 C         1.306243         0.012653         0.099075
 C         2.107643         0.737658         1.219152
 C         3.377559         0.595724         0.324781
 C         3.263499        -0.917103        -0.198053
 O         4.312405        -1.490200        -0.916677
 C         1.867672        -1.389052         0.198347
 C         2.605013         0.271302        -0.882978
 O         2.822928         0.919432        -2.203915
 H        -0.840481        -0.393017         0.703253
 H        -0.482287         1.300306         0.056046
 H        -0.592349        -0.078593        -1.124406
 H         1.730008         1.857228         1.190720
 H         2.115899         0.345141         2.328184
 H         4.258507         1.157110         0.225589
 H         5.045454        -1.837141        -0.395695
 H         1.454962        -2.001570        -0.581116
 H         1.645588        -1.952355         1.164888
 H         2.365292         0.346036        -2.922485
