19
Iteration:  3002
 C        -0.111850         0.165227        -0.262592
 C         1.388016         0.096760        -0.006728
 C         2.044569         0.658108         1.316788
 C         3.353300         0.578471         0.511076
 C         3.269995        -0.815956        -0.277993
 O         4.281188        -1.649596        -0.804372
 C         1.890272        -1.340371         0.020769
 C         2.687262         0.464261        -0.825182
 O         2.660834         0.854698        -2.140881
 H        -0.400622        -0.566819         0.443258
 H        -0.674965         1.035582         0.084183
 H        -0.526393        -0.257009        -1.246737
 H         1.724864         1.621561         1.649716
 H         1.794553         0.024627         2.245360
 H         4.399607         0.817695         0.792605
 H         4.473645        -1.398192        -1.681029
 H         1.689313        -2.018771        -0.847054
 H         1.770321        -1.898327         0.943223
 H         3.154114         1.707073        -2.278289
