19
Iteration:  2811charge 0 multiplicity 1
 C        -0.183014         0.245021        -0.288314
 C         1.279129        -0.096638         0.035904
 C         2.090839         0.740509         1.215145
 C         3.367252         0.520063         0.416346
 C         3.298348        -0.869780        -0.282831
 O         4.369806        -1.553774        -0.840843
 C         1.890523        -1.478411         0.080801
 C         2.558694         0.354053        -0.822350
 O         2.744641         0.942572        -1.995819
 H        -0.895558        -0.401800         0.231779
 H        -0.311553         1.310854         0.101555
 H        -0.351067         0.315303        -1.355316
 H         1.763305         1.805217         1.223187
 H         2.047205         0.295803         2.258288
 H         4.282558         1.119417         0.568411
 H         4.251983        -1.293543        -1.695415
 H         1.540142        -2.089919        -0.727840
 H         1.804171        -2.048471         1.034508
 H         3.155335         1.805997        -1.810570
