19
Iteration:  1557charge 0 multiplicity 1
 C        -0.143776         0.160077        -0.176035
 C         1.323751        -0.008936         0.045419
 C         2.081920         0.608812         1.314186
 C         3.387960         0.601024         0.493332
 C         3.263480        -0.795085        -0.249061
 O         4.408774        -1.510780        -0.747649
 C         1.877101        -1.401456        -0.062488
 C         2.609545         0.463157        -0.868924
 O         2.671133         0.821967        -2.190050
 H        -0.685142        -0.291960         0.748095
 H        -0.464093         1.235698        -0.384151
 H        -0.443215        -0.454735        -1.109958
 H         1.750699         1.595671         1.599934
 H         1.963356        -0.025295         2.256403
 H         4.404454         1.161469         0.750970
 H         4.300163        -1.374017        -1.846336
 H         1.503411        -2.051360        -0.910860
 H         1.808204        -2.033404         0.860115
 H         2.526692         1.753300        -2.220682
