19
Iteration:  4441
 C        -0.151436         0.328948        -0.236586
 C         1.344483        -0.105978        -0.007393
 C         2.087679         0.660478         1.183805
 C         3.367050         0.506475         0.384255
 C         3.283864        -0.881917        -0.293648
 O         4.415018        -1.581955        -0.602858
 C         1.911037        -1.519922        -0.006948
 C         2.615407         0.361160        -0.845765
 O         2.549695         1.118213        -2.040212
 H        -0.692985         0.466868         0.734370
 H        -0.320481         1.230995        -0.804821
 H        -0.616610        -0.475369        -0.822748
 H         1.892957         1.818704         1.279953
 H         2.181151         0.274278         2.286465
 H         4.341103         0.940337         0.654589
 H         4.483915        -1.860558        -1.588202
 H         1.539688        -1.865093        -1.031291
 H         1.695846        -2.283663         0.770107
 H         3.296089         1.013036        -2.613888
