19
Iteration:  1781
 C        -0.111113         0.068551        -0.240808
 C         1.376878         0.065743         0.076432
 C         2.086031         0.604009         1.306879
 C         3.326024         0.505905         0.424779
 C         3.244597        -0.825359        -0.388998
 O         4.258477        -1.631143        -0.738563
 C         1.870853        -1.397363         0.025636
 C         2.590906         0.435176        -0.902019
 O         2.778567         1.046938        -2.118928
 H        -0.668428        -0.502941         0.507341
 H        -0.624617         1.125793        -0.311963
 H        -0.248765        -0.537954        -1.123990
 H         1.884254         1.701585         1.464287
 H         2.181354         0.054755         2.205274
 H         4.327628         0.966806         0.873770
 H         5.042370        -1.128319        -0.945023
 H         1.311885        -1.875257        -0.722891
 H         1.933171        -1.889365         0.974029
 H         2.394370         1.976591        -2.132472
