19
Iteration:   499
 C        -0.178216         0.204038        -0.069621
 C         1.325966         0.071551         0.099761
 C         2.158891         0.787797         1.242783
 C         3.332803         0.623764         0.313013
 C         3.235361        -0.873142        -0.279750
 O         4.294480        -1.532088        -0.916245
 C         1.909698        -1.431752         0.138873
 C         2.513396         0.277946        -0.939361
 O         2.824141         0.889074        -2.094260
 H        -0.772402        -0.515827         0.543392
 H        -0.586441         1.257121         0.084782
 H        -0.474087        -0.013650        -1.126649
 H         1.737645         1.813493         1.397093
 H         2.141165         0.383295         2.332041
 H         4.312136         0.970908         0.314028
 H         5.066662        -1.968356        -0.251145
 H         1.460364        -1.994420        -0.730149
 H         1.949535        -1.915107         1.135305
 H         2.431820         0.382347        -2.909934
