19
Iteration:  2340
 C        -0.158720         0.224675        -0.267449
 C         1.295036        -0.044836         0.066603
 C         2.105615         0.585454         1.385572
 C         3.268047         0.636565         0.462649
 C         3.275228        -0.832184        -0.338375
 O         4.343733        -1.598751        -0.761428
 C         1.911282        -1.490597        -0.084089
 C         2.607693         0.439047        -0.783368
 O         2.839921         1.013724        -2.093099
 H        -0.799559         0.305560         0.599353
 H        -0.243214         1.282485        -0.849713
 H        -0.555163        -0.561622        -0.926839
 H         1.672871         1.568973         1.725398
 H         2.200160        -0.134083         2.223434
 H         4.238573         1.126151         0.569540
 H         4.294235        -1.617927        -1.656354
 H         1.619971        -2.024451        -0.975359
 H         1.727400        -2.208743         0.728141
 H         2.003988         1.436025        -2.360284
