19
Iteration:  3140
 C        -0.065569         0.233465        -0.384166
 C         1.409585        -0.003006        -0.014008
 C         2.090190         0.697728         1.253091
 C         3.374903         0.441876         0.417254
 C         3.216614        -0.940744        -0.328158
 O         4.384063        -1.625207        -0.647102
 C         1.912287        -1.512222         0.190808
 C         2.633201         0.408321        -0.909765
 O         2.526043         1.178989        -2.112402
 H        -0.724312        -0.112126         0.603263
 H        -0.318263         1.314736        -0.751148
 H        -0.489299        -0.428166        -1.137512
 H         1.814132         1.786802         1.501712
 H         1.932823         0.155505         2.164653
 H         4.460705         0.532893         0.685863
 H         4.426969        -1.856250        -1.697388
 H         1.418970        -2.152700        -0.551994
 H         1.947307        -2.026754         1.226173
 H         2.850419         2.051375        -1.894952
