19
Iteration:  3282charge 0 multiplicity 1
 C        -0.152331         0.337964        -0.254097
 C         1.334056        -0.058362         0.020084
 C         1.994268         0.676453         1.221323
 C         3.361022         0.444108         0.482956
 C         3.223712        -0.911524        -0.343950
 O         4.328247        -1.522290        -0.830021
 C         1.952562        -1.542826         0.187089
 C         2.597876         0.309674        -0.929132
 O         2.777292         1.005340        -2.124681
 H        -0.666684         0.112909         0.624886
 H        -0.126177         1.389583        -0.507274
 H        -0.615480        -0.232938        -0.994735
 H         1.695412         1.771588         1.487803
 H         1.634498         0.351106         2.271383
 H         4.399448         0.788525         0.693932
 H         4.898121        -0.798075        -1.125201
 H         1.472429        -2.290887        -0.435887
 H         2.080523        -1.812824         1.264861
 H         2.543916         1.942352        -1.929864
