19
Iteration:  4024
 C        -0.098390         0.282157        -0.298802
 C         1.297500        -0.012671         0.054177
 C         2.066530         0.592285         1.262699
 C         3.388519         0.432312         0.391448
 C         3.215280        -0.879637        -0.392124
 O         4.422609        -1.547816        -0.615349
 C         1.871354        -1.467552         0.109886
 C         2.582639         0.419949        -0.911272
 O         2.633698         1.040603        -2.116182
 H        -0.648333         0.342212         0.610396
 H        -0.096879         1.372393        -0.659782
 H        -0.456503        -0.360816        -1.133115
 H         1.844356         1.704218         1.248659
 H         2.164528         0.045518         2.210300
 H         4.402574         0.714285         0.583317
 H         4.537218        -1.884460        -1.588037
 H         1.541159        -2.266009        -0.553282
 H         2.009344        -1.900453         1.109673
 H         2.653827         1.972988        -2.015698
