19
Iteration:   228
 C         0.043719         0.386631        -0.369111
 C         1.393000        -0.014076         0.069040
 C         2.135296         0.749500         1.237137
 C         3.422681         0.530741         0.386709
 C         3.234056        -0.944789        -0.324362
 O         4.401234        -1.613604        -0.763176
 C         1.923967        -1.529261         0.225288
 C         2.647061         0.276289        -0.932880
 O         2.249418         1.056675        -2.077039
 H        -0.653405         0.522413         0.563288
 H         0.064896         1.341617        -0.936838
 H        -0.371825        -0.349432        -0.982771
 H         1.868203         1.895050         1.289618
 H         2.104551         0.245850         2.314813
 H         4.530283         0.721156         0.354265
 H         4.917836        -1.785118        -0.035508
 H         1.504064        -2.239750        -0.452666
 H         1.844486        -1.997165         1.268257
 H         2.905127         1.123527        -2.748192
