19
Iteration:  3862charge 0 multiplicity 1
 C        -0.176427         0.295186        -0.228472
 C         1.294761         0.005321         0.060770
 C         2.062391         0.644503         1.331613
 C         3.324480         0.556614         0.484308
 C         3.226785        -0.846294        -0.349084
 O         4.340092        -1.455997        -0.791724
 C         1.854199        -1.472994         0.005848
 C         2.646326         0.431196        -0.828138
 O         2.866144         0.780979        -2.111122
 H        -0.940278        -0.050488         0.690517
 H        -0.381428         1.318238        -0.485662
 H        -0.603908        -0.382801        -1.022163
 H         1.925557         1.659812         1.536507
 H         2.164830        -0.059954         2.114614
 H         4.363255         0.962945         0.584931
 H         4.253963        -1.620489        -1.824650
 H         1.359848        -2.037356        -0.819973
 H         1.874376        -1.986062         0.980291
 H         2.638554         1.660107        -2.330770
