19
Iteration:  3731charge 0 multiplicity 1
 C        -0.169436         0.328120        -0.170138
 C         1.357447         0.028717         0.024782
 C         2.111131         0.604844         1.212123
 C         3.323312         0.395546         0.426868
 C         3.224564        -0.880126        -0.296544
 O         4.465173        -1.512264        -0.629515
 C         1.868646        -1.527402         0.002668
 C         2.600094         0.398435        -0.944680
 O         2.666067         1.055221        -2.176914
 H        -0.846473        -0.293206         0.568103
 H        -0.264423         1.395569        -0.088920
 H        -0.514716        -0.016139        -1.204333
 H         1.850684         1.646795         1.555400
 H         1.962838         0.079848         2.185793
 H         4.290373         0.727398         0.740618
 H         4.222189        -2.144758        -1.271908
 H         1.419811        -2.202994        -0.779913
 H         1.931594        -2.023910         1.012381
 H         2.801420         1.997831        -2.181456
