19
Iteration:  4784
 C        -0.085535         0.376064        -0.343348
 C         1.324609        -0.032301         0.010757
 C         2.048830         0.633625         1.216114
 C         3.354924         0.487085         0.428225
 C         3.177772        -0.914673        -0.289335
 O         4.368494        -1.512974        -0.763182
 C         1.912429        -1.526734         0.147704
 C         2.624901         0.324928        -0.858334
 O         2.717169         1.020079        -2.035767
 H        -0.849911        -0.283898         0.109898
 H        -0.283825         1.494168        -0.065416
 H        -0.409011         0.244269        -1.453332
 H         1.719310         1.700823         1.375310
 H         2.185833         0.084391         2.148431
 H         4.358667         0.782335         0.704488
 H         4.414023        -1.931664        -1.577518
 H         1.526552        -2.122403        -0.675783
 H         1.812091        -2.132259         1.010823
 H         2.600511         1.901444        -1.835538
