19
Iteration:  3456
 C        -0.110795         0.201014        -0.230721
 C         1.347956         0.018579         0.096369
 C         2.069303         0.670399         1.300138
 C         3.364454         0.497240         0.546201
 C         3.232632        -0.788248        -0.290129
 O         4.176537        -1.520554        -0.882941
 C         1.925223        -1.428661         0.047247
 C         2.623932         0.429318        -0.811051
 O         2.851980         0.809837        -2.140800
 H        -0.756253        -0.035911         0.605480
 H        -0.344189         1.260894        -0.480644
 H        -0.218074        -0.438588        -1.228999
 H         1.743868         1.676825         1.387017
 H         1.775836         0.059276         2.134604
 H         4.333281         0.925474         0.654840
 H         4.495794        -0.985056        -1.734384
 H         1.519691        -1.970652        -0.778292
 H         1.690670        -2.037193         0.933871
 H         2.611372         1.741054        -2.310129
