19
Iteration:  4180charge 0 multiplicity 1
 C        -0.041500         0.232769        -0.359080
 C         1.386774        -0.080984         0.000734
 C         2.103407         0.734969         1.203761
 C         3.367356         0.419696         0.453416
 C         3.245810        -0.916898        -0.353791
 O         4.373831        -1.646320        -0.656990
 C         1.896717        -1.452928         0.123825
 C         2.597814         0.374760        -0.875618
 O         2.528027         1.143750        -2.054656
 H        -0.576540         0.137152         0.594203
 H        -0.110802         1.311320        -0.760362
 H        -0.499710        -0.365275        -1.213754
 H         1.934099         1.738552         1.459567
 H         1.799950         0.358429         2.124101
 H         4.412295         0.727967         0.634560
 H         4.465506        -1.715158        -1.705643
 H         1.420656        -2.161948        -0.594852
 H         1.859327        -1.770469         1.178261
 H         2.922343         2.066469        -1.948032
