19
Iteration:  3898
 C        -0.133944         0.305851        -0.074424
 C         1.307492        -0.025487        -0.018968
 C         2.049798         0.649795         1.190546
 C         3.354825         0.457153         0.518070
 C         3.206030        -0.822932        -0.278971
 O         4.338268        -1.453018        -0.694060
 C         1.877543        -1.479851        -0.084835
 C         2.657429         0.478573        -0.836152
 O         2.810685         0.769548        -2.186072
 H        -0.658819        -0.322016         0.808466
 H        -0.320180         1.397675         0.234666
 H        -0.641999         0.145319        -1.072139
 H         1.764454         1.618264         1.279253
 H         1.744383         0.249680         2.112942
 H         4.284270         0.931768         0.722460
 H         4.454806        -1.279703        -1.719612
 H         1.624110        -2.092295        -0.971837
 H         1.666902        -2.109190         0.792393
 H         2.613500         1.659534        -2.389675
