19
Iteration:  3065charge 0 multiplicity 1
 C        -0.117922         0.378378        -0.155569
 C         1.281075        -0.040823        -0.049083
 C         1.949981         0.592463         1.156944
 C         3.318843         0.376569         0.472106
 C         3.218735        -0.854143        -0.339242
 O         4.452585        -1.399222        -0.793795
 C         1.948567        -1.491967         0.175180
 C         2.541150         0.341736        -0.915312
 O         2.825878         0.911006        -2.092524
 H        -0.489131         0.091803         0.869146
 H        -0.098769         1.515141        -0.277458
 H        -0.760125         0.147486        -0.964882
 H         1.825580         1.673718         1.296300
 H         1.721462        -0.012940         2.127466
 H         4.316319         0.804603         0.628421
 H         4.168006        -1.852610        -1.528698
 H         1.520067        -2.207843        -0.541216
 H         1.863609        -1.840646         1.219174
 H         2.538579         1.889769        -2.096148
