19
Iteration:  1763
 C        -0.185372         0.131568        -0.227609
 C         1.300742         0.024768         0.055595
 C         2.148347         0.628219         1.334471
 C         3.407942         0.489120         0.470792
 C         3.179435        -0.805253        -0.338832
 O         4.324622        -1.527085        -0.783565
 C         1.859511        -1.446709        -0.008293
 C         2.583059         0.512103        -0.865361
 O         2.763104         0.927626        -2.162347
 H        -0.820271        -0.279806         0.668711
 H        -0.443714         1.090350        -0.475435
 H        -0.448153        -0.474408        -1.093307
 H         1.841877         1.560324         1.781952
 H         2.029085        -0.046782         2.287997
 H         4.488320         0.829855         0.376480
 H         5.103122        -1.119213        -0.439249
 H         1.541931        -1.998592        -0.980266
 H         1.675838        -2.276552         0.792128
 H         2.839245         1.929299        -2.143447
