19
Iteration:  1708
 C        -0.080597         0.434668        -0.236599
 C         1.275737        -0.132165         0.046661
 C         2.001496         0.588465         1.222767
 C         3.273787         0.493485         0.507728
 C         3.240398        -0.869711        -0.338854
 O         4.438507        -1.332197        -0.864549
 C         1.969230        -1.600599         0.105160
 C         2.597677         0.323320        -0.851352
 O         2.704368         0.927272        -2.119076
 H        -0.836635         0.289521         0.633063
 H         0.067153         1.448630        -0.292840
 H        -0.586147        -0.021198        -1.069101
 H         1.718593         1.618617         1.137659
 H         1.919618         0.132137         2.278479
 H         4.293065         0.906086         0.836059
 H         4.504383        -2.224387        -0.922013
 H         1.663236        -2.257890        -0.736984
 H         2.108082        -2.000180         1.151646
 H         2.270424         1.766575        -2.055846
