19
Iteration:    42
 C        -0.048763         0.270043        -0.369957
 C         1.380000         0.006485         0.037498
 C         2.186040         0.736868         1.211704
 C         3.465610         0.586974         0.277745
 C         3.269954        -0.862981        -0.280689
 O         4.359043        -1.614622        -0.656864
 C         1.955762        -1.447822         0.150623
 C         2.631125         0.352707        -0.932641
 O         2.277184         0.915609        -2.077908
 H        -0.725969        -0.573243         0.111927
 H        -0.401246         1.229191         0.033333
 H        -0.220069         0.266053        -1.365170
 H         2.028097         1.753552         1.220769
 H         2.189914         0.222660         2.161574
 H         4.457743         0.965392         0.410399
 H         4.776347        -2.133479         0.183814
 H         1.504471        -2.069085        -0.577247
 H         2.014030        -1.933643         1.168492
 H         2.843840         1.774934        -2.033484
