19
Iteration:  3142charge 0 multiplicity 1
 C        -0.046849         0.246725        -0.378757
 C         1.395806        -0.004175        -0.010828
 C         2.079049         0.694657         1.253096
 C         3.359390         0.451234         0.416543
 C         3.209538        -0.945856        -0.329433
 O         4.396730        -1.630406        -0.658760
 C         1.933008        -1.507692         0.193236
 C         2.622731         0.387285        -0.917815
 O         2.536264         1.182242        -2.106763
 H        -0.711744        -0.111251         0.570671
 H        -0.295921         1.357886        -0.680095
 H        -0.498466        -0.453197        -1.140888
 H         1.765853         1.716207         1.493793
 H         1.888431         0.260636         2.172475
 H         4.457551         0.539196         0.692016
 H         4.359216        -1.868372        -1.677693
 H         1.434767        -2.194929        -0.544330
 H         1.947329        -1.948202         1.222427
 H         2.830008         2.036837        -1.875894
