19
Iteration:  2050
 C        -0.118687         0.339527        -0.228992
 C         1.284928        -0.055518         0.180810
 C         2.126064         0.586703         1.241809
 C         3.331277         0.509422         0.347789
 C         3.177009        -0.946402        -0.426339
 O         4.484358        -1.453142        -0.627440
 C         1.879845        -1.563875         0.033476
 C         2.531597         0.312860        -0.962479
 O         2.704011         1.153221        -2.013720
 H        -0.963139        -0.244567         0.339141
 H        -0.257461         1.426615        -0.165681
 H        -0.236448         0.236813        -1.366518
 H         1.794978         1.594679         1.466223
 H         2.238972        -0.050150         2.157267
 H         4.476291         0.598675         0.428246
 H         4.670055        -1.403820        -1.565363
 H         1.468707        -2.097726        -0.834558
 H         1.716699        -1.960400         1.017684
 H         2.273804         0.543380        -2.741758
