19
Iteration:  3641charge 0 multiplicity 1
 C        -0.088503         0.224051        -0.316341
 C         1.311898         0.049356         0.080170
 C         2.045269         0.658941         1.330869
 C         3.369925         0.481782         0.520113
 C         3.195828        -0.866107        -0.246497
 O         4.271320        -1.405041        -0.952874
 C         1.877304        -1.500825         0.115940
 C         2.595972         0.395034        -0.795114
 O         2.863981         0.824624        -2.123709
 H        -0.818715        -0.020625         0.588840
 H        -0.435367         1.258400        -0.492804
 H        -0.318250        -0.334166        -1.166753
 H         1.763389         1.833678         1.455531
 H         1.910250         0.189724         2.356742
 H         4.364531         0.984945         0.563496
 H         4.164941        -1.384429        -1.842073
 H         1.362527        -2.023293        -0.694374
 H         1.767467        -2.227698         0.986399
 H         3.124158         1.726991        -2.103270
