19
Iteration:  1982charge 0 multiplicity 1
 C        -0.094707         0.112701        -0.329186
 C         1.336353        -0.053014         0.056637
 C         2.081644         0.691901         1.382713
 C         3.342104         0.541454         0.416117
 C         3.296388        -0.883375        -0.345740
 O         4.296771        -1.594199        -0.783338
 C         1.943415        -1.433160         0.031315
 C         2.594064         0.464733        -0.863643
 O         2.674159         1.096793        -2.041675
 H        -0.810554        -0.524888         0.410394
 H        -0.427166         1.104723        -0.406575
 H        -0.108466        -0.297738        -1.388825
 H         1.781019         1.720647         1.374800
 H         2.136210         0.107982         2.273132
 H         4.291972         1.003242         0.427381
 H         3.922737        -2.495135        -1.127588
 H         1.663129        -2.036133        -0.798767
 H         1.880027        -1.907738         0.994676
 H         2.882397         2.022728        -2.037632
