19
Iteration:  1297
 C        -0.171712         0.141129        -0.188878
 C         1.328676        -0.062717         0.078949
 C         2.095290         0.727512         1.195595
 C         3.448131         0.569546         0.425615
 C         3.282669        -0.818520        -0.280220
 O         4.357756        -1.378688        -0.895074
 C         1.965235        -1.486645         0.184521
 C         2.559232         0.370697        -0.897463
 O         2.653971         0.833379        -2.133501
 H        -0.890696        -0.333883         0.536730
 H        -0.470792         1.238050        -0.042620
 H        -0.545557        -0.251892        -1.209841
 H         1.694774         1.837254         1.195013
 H         1.839333         0.222132         2.105497
 H         4.331589         1.077531         0.417215
 H         4.840474        -1.858491        -0.300255
 H         1.572389        -2.083741        -0.669115
 H         1.906764        -2.039528         1.095010
 H         2.187020         1.653459        -2.200036
