19
Iteration:  4839
 C        -0.095186         0.224710        -0.406717
 C         1.355936         0.073668        -0.017861
 C         2.055074         0.653384         1.320080
 C         3.421216         0.447585         0.583918
 C         3.212641        -0.867304        -0.203767
 O         4.250764        -1.483095        -0.872105
 C         1.819940        -1.480183         0.023121
 C         2.681735         0.407997        -0.808973
 O         2.758041         0.873029        -2.061674
 H        -0.626176         0.231110         0.523776
 H        -0.364915         1.222809        -0.863954
 H        -0.348977        -0.663197        -1.046683
 H         1.824682         1.731939         1.620751
 H         1.997751         0.135044         2.293853
 H         4.388526         0.907543         0.744692
 H         4.442733        -1.154190        -1.713954
 H         1.508204        -2.099454        -0.771298
 H         1.842387        -1.854397         0.987309
 H         2.516746         1.806926        -2.014205
