19
Iteration:  2404charge 0 multiplicity 1
 C        -0.153711         0.260094        -0.294684
 C         1.345810        -0.014576         0.061142
 C         2.101897         0.628251         1.311408
 C         3.372158         0.412995         0.362620
 C         3.165385        -0.923230        -0.381317
 O         4.488606        -1.468647        -0.637391
 C         1.854688        -1.488715         0.032113
 C         2.600615         0.342566        -0.908791
 O         2.610014         1.101212        -2.053908
 H        -0.883470        -0.407666         0.022195
 H        -0.480319         1.237399        -0.101203
 H        -0.116907         0.128877        -1.350015
 H         1.957397         1.695850         1.345414
 H         2.020219         0.022806         2.285416
 H         4.383233         0.707551         0.577181
 H         4.607582        -1.791492        -1.475898
 H         1.412418        -2.059738        -0.818967
 H         1.674584        -2.086918         0.951326
 H         3.140914         1.855421        -1.862193
