19
Iteration:  3447
 C        -0.082790         0.223948        -0.197855
 C         1.357161         0.077948         0.025423
 C         2.019223         0.608441         1.260158
 C         3.373551         0.515103         0.557581
 C         3.269875        -0.817003        -0.238452
 O         4.277156        -1.600295        -0.908552
 C         1.871427        -1.402925         0.057486
 C         2.559904         0.544063        -0.824075
 O         2.817237         0.778256        -2.150879
 H        -0.769073        -0.287446         0.527762
 H        -0.414781         1.286723        -0.363702
 H        -0.512631        -0.389547        -1.106885
 H         1.816412         1.568134         1.554343
 H         1.866899         0.175197         2.265106
 H         4.238371         0.991592         1.038923
 H         4.596494        -1.049834        -1.778665
 H         1.524095        -1.901394        -0.851973
 H         1.813686        -1.951061         0.986317
 H         2.652022         1.734187        -2.309381
