19
Iteration:   764charge 0 multiplicity 1
 C        -0.148806         0.309398        -0.220742
 C         1.342692        -0.005175         0.068508
 C         2.123756         0.718600         1.252054
 C         3.355067         0.566050         0.422855
 C         3.266412        -0.835553        -0.228816
 O         4.378689        -1.327460        -0.953322
 C         1.913542        -1.495386         0.189802
 C         2.586170         0.307243        -0.847908
 O         2.629045         0.803659        -2.180120
 H        -0.737026        -0.028506         0.752553
 H        -0.306442         1.368400        -0.152348
 H        -0.433725        -0.002649        -1.161196
 H         1.870797         1.698675         1.484571
 H         2.112416         0.113329         2.166359
 H         4.383634         0.803119         0.608110
 H         4.635687        -2.200928        -0.367820
 H         1.497853        -2.102638        -0.626616
 H         1.658350        -2.054845         1.191873
 H         2.665640         0.045879        -2.705043
