19
Iteration:  1450charge 0 multiplicity 1
 C        -0.087432         0.043122        -0.185624
 C         1.358087         0.007813         0.033426
 C         2.074610         0.727242         1.296445
 C         3.363443         0.574014         0.322390
 C         3.271300        -0.826153        -0.373523
 O         4.333643        -1.689459        -0.604537
 C         2.041902        -1.478935         0.074024
 C         2.561233         0.409447        -0.913691
 O         2.492756         1.130826        -2.152314
 H        -0.654616        -0.611639         0.501556
 H        -0.602385         1.080362        -0.313978
 H        -0.163278        -0.533612        -1.191330
 H         1.886319         1.887585         1.226830
 H         2.103185         0.423982         2.306695
 H         4.371179         1.153961         0.498868
 H         4.773181        -1.586851        -1.519311
 H         1.619699        -2.143454        -0.719977
 H         2.038702        -1.997576         1.033535
 H         3.133965         1.814351        -2.054610
