19
Iteration:  3020charge 0 multiplicity 1
 C        -0.111968         0.155739        -0.205400
 C         1.302845         0.033874         0.105953
 C         2.133538         0.679940         1.268462
 C         3.405372         0.496589         0.484977
 C         3.193155        -0.815537        -0.278698
 O         4.274080        -1.477944        -0.752573
 C         1.865347        -1.462233        -0.025659
 C         2.563883         0.439998        -0.850246
 O         2.809864         0.826962        -2.159579
 H        -0.773111        -0.566473         0.351455
 H        -0.517693         1.204747        -0.166104
 H        -0.235895         0.034129        -1.233999
 H         1.853451         1.768527         1.444034
 H         2.115364         0.193177         2.339051
 H         4.301012         1.038588         0.556662
 H         4.309072        -1.395669        -1.676783
 H         1.408406        -1.802031        -0.945466
 H         1.704178        -2.189194         0.802048
 H         3.005359         1.811403        -2.168163
