19
Iteration:  4844charge 0 multiplicity 1
 C        -0.078662         0.242746        -0.368074
 C         1.334905         0.048229        -0.025157
 C         2.065742         0.657769         1.311434
 C         3.367687         0.422306         0.573631
 C         3.233012        -0.863828        -0.253745
 O         4.288798        -1.499437        -0.847559
 C         1.825432        -1.430277         0.032139
 C         2.645570         0.410786        -0.754629
 O         2.761075         0.870635        -2.079003
 H        -0.509346         0.177436         0.684230
 H        -0.364418         1.184610        -0.939559
 H        -0.257748        -0.691940        -1.005369
 H         1.846380         1.696807         1.392077
 H         2.067081        -0.029175         2.171398
 H         4.320256         0.957408         0.733296
 H         4.394344        -0.999403        -1.744955
 H         1.502694        -2.026304        -0.885092
 H         1.505104        -1.935135         1.073362
 H         2.711912         1.895106        -2.141055
