19
Iteration:  4390
 C        -0.161094         0.339073        -0.251161
 C         1.369462        -0.006387         0.012849
 C         2.089082         0.604461         1.198786
 C         3.413229         0.460107         0.393415
 C         3.252657        -0.923406        -0.331967
 O         4.476388        -1.496729        -0.619541
 C         1.863861        -1.506732         0.044429
 C         2.570121         0.371634        -0.892357
 O         2.574292         1.057377        -2.126262
 H        -0.914223         0.254191         0.598081
 H        -0.295634         1.394609        -0.763922
 H        -0.480921        -0.323205        -1.093991
 H         1.978760         1.519083         1.732679
 H         2.041749         0.054891         2.148056
 H         4.489490         0.734275         0.452856
 H         4.315304        -2.296941        -1.007497
 H         1.285287        -2.125940        -0.670624
 H         1.809656        -2.096490         0.981162
 H         2.930725         1.882990        -1.837136
