19
Iteration:  3319charge 0 multiplicity 1
 C        -0.052442         0.132667        -0.396072
 C         1.384809         0.038002         0.125484
 C         2.135030         0.781127         1.334338
 C         3.394914         0.553974         0.396022
 C         3.182004        -0.908033        -0.358198
 O         4.303209        -1.666087        -0.716895
 C         1.907693        -1.465360         0.030889
 C         2.579403         0.326094        -0.827279
 O         2.601743         1.090572        -2.022111
 H        -0.801309         0.112569         0.460865
 H        -0.342070         1.077610        -0.885626
 H        -0.283620        -0.538491        -1.197988
 H         1.893020         1.838954         1.262614
 H         1.983031         0.202271         2.173898
 H         4.445683         0.784239         0.257241
 H         4.611443        -1.385132        -1.669756
 H         1.428206        -2.141532        -0.749227
 H         1.878085        -2.071408         0.967969
 H         3.063044         1.853144        -1.751488
