19
Iteration:  4448charge 0 multiplicity 1
 C        -0.165464         0.300634        -0.259333
 C         1.346569        -0.069110         0.002851
 C         2.107456         0.680595         1.241936
 C         3.372308         0.496458         0.436347
 C         3.285521        -0.875362        -0.286269
 O         4.445762        -1.584895        -0.633208
 C         1.864460        -1.500633        -0.023012
 C         2.615524         0.328350        -0.876486
 O         2.546752         1.130517        -2.040128
 H        -0.730994         0.387214         0.785131
 H        -0.236691         1.240878        -0.799778
 H        -0.605108        -0.535164        -0.893263
 H         1.832472         1.664306         1.075438
 H         2.126809         0.278237         2.157894
 H         4.372119         0.910316         0.569116
 H         4.462870        -1.740049        -1.687963
 H         1.524164        -1.990721        -0.900406
 H         1.628743        -2.034616         0.916359
 H         3.362869         0.791242        -2.572437
