19
Iteration:  4220
 C        -0.065259         0.255486        -0.280830
 C         1.301044        -0.026020         0.045075
 C         2.127411         0.653680         1.324027
 C         3.299679         0.489694         0.374018
 C         3.207026        -0.876257        -0.429670
 O         4.434534        -1.577702        -0.605267
 C         1.885851        -1.470065        -0.001063
 C         2.552759         0.411631        -0.914740
 O         2.651893         1.045315        -2.081551
 H        -0.654553         0.425277         0.574588
 H         0.102875         1.240105        -0.795752
 H        -0.643258        -0.431832        -0.920401
 H         1.970305         1.721196         1.538399
 H         2.436790        -0.071168         2.229018
 H         4.354864         0.936884         0.445631
 H         4.194188        -2.424657        -0.834423
 H         1.477152        -1.921894        -0.900703
 H         1.780403        -2.161965         0.831002
 H         2.632230         1.977838        -1.882654
