19
Iteration:  1311
 C        -0.101098         0.149952        -0.201742
 C         1.330445        -0.017078         0.130565
 C         2.072608         0.685052         1.282518
 C         3.344647         0.585224         0.422073
 C         3.263888        -0.756401        -0.238652
 O         4.315641        -1.398919        -0.956189
 C         1.956549        -1.431013         0.068095
 C         2.533401         0.385084        -0.800491
 O         2.684347         0.719689        -2.189924
 H        -0.722985        -0.382556         0.613053
 H        -0.342218         1.154075        -0.352503
 H        -0.224961        -0.391155        -1.086079
 H         1.843121         1.782524         1.303758
 H         2.210556         0.379020         2.365046
 H         4.368073         1.034162         0.719878
 H         5.191790        -1.373958        -0.287700
 H         1.662005        -2.008836        -0.827093
 H         1.773114        -2.106353         0.957399
 H         2.169153         1.595353        -2.331301
