19
Iteration:  4002charge 0 multiplicity 1
 C        -0.094516         0.224072        -0.389648
 C         1.345507         0.006974         0.029160
 C         2.127301         0.751240         1.261749
 C         3.412956         0.497126         0.377122
 C         3.259354        -0.922266        -0.270158
 O         4.341032        -1.612701        -0.688120
 C         1.903398        -1.499843         0.088564
 C         2.630783         0.348461        -0.874910
 O         2.574266         1.086251        -2.009741
 H        -0.722540         0.115440         0.469913
 H        -0.154793         1.262455        -0.822464
 H        -0.211653        -0.540268        -1.200479
 H         1.888292         1.880578         1.160841
 H         2.155970         0.120898         2.192813
 H         4.420363         0.890995         0.423327
 H         4.206875        -2.046438        -1.471723
 H         1.461325        -1.972472        -0.804010
 H         1.721814        -2.149988         0.963584
 H         2.309637         2.020251        -1.703762
