19
Iteration:  3833
 C        -0.065464         0.256846        -0.318267
 C         1.327465        -0.077365         0.126069
 C         2.086731         0.717047         1.255183
 C         3.319523         0.428839         0.458578
 C         3.200629        -0.902238        -0.290310
 O         4.325119        -1.444676        -0.802474
 C         1.846726        -1.495559         0.150132
 C         2.596108         0.331343        -0.893681
 O         2.740010         0.998836        -2.108425
 H        -0.753902         0.217748         0.405259
 H        -0.179887         1.282632        -0.753655
 H        -0.192651        -0.378515        -1.233407
 H         2.091785         1.868946         1.295372
 H         2.174075         0.221450         2.264444
 H         4.330665         0.823092         0.555129
 H         4.156022        -1.697460        -1.707393
 H         1.375166        -2.164885        -0.610196
 H         1.802809        -2.005850         1.118665
 H         3.146778         1.884652        -1.912141
