19
Iteration:  1070charge 0 multiplicity 1
 C        -0.103931         0.071314        -0.103316
 C         1.358398        -0.015680         0.096280
 C         2.088829         0.799414         1.099740
 C         3.300045         0.521028         0.286176
 C         3.220478        -0.899098        -0.383118
 O         4.420908        -1.565529        -0.679719
 C         1.987037        -1.494721         0.175933
 C         2.523755         0.380215        -0.964333
 O         2.644881         1.191582        -2.092264
 H        -0.648991        -0.529667         0.765164
 H        -0.447273         1.087734         0.097622
 H        -0.491975        -0.165556        -1.067181
 H         1.643174         1.715230         0.960185
 H         2.120124         0.508276         2.179968
 H         4.272836         1.012291         0.437384
 H         4.332684        -2.496596        -0.687494
 H         1.466288        -2.246262        -0.439277
 H         2.188218        -1.781635         1.220977
 H         2.755851         0.572753        -2.909742
