19
Iteration:  4892charge 0 multiplicity 1
 C        -0.167662         0.353867        -0.125715
 C         1.291751        -0.043535        -0.028950
 C         2.010107         0.568620         1.222597
 C         3.308625         0.487025         0.363822
 C         3.190350        -0.861364        -0.317422
 O         4.417834        -1.453377        -0.676190
 C         1.854383        -1.570252         0.034821
 C         2.544946         0.368083        -0.915975
 O         2.905973         0.991948        -2.108668
 H        -0.611018         0.101218         0.839681
 H        -0.110585         1.400450        -0.135828
 H        -0.655087         0.049954        -0.972095
 H         1.719582         1.670461         1.151424
 H         1.940239        -0.022684         2.176942
 H         4.263969         0.895696         0.646432
 H         4.367749        -1.931894        -1.467880
 H         1.435774        -2.135022        -0.846397
 H         1.838475        -2.126213         1.000579
 H         2.982836         1.878543        -1.938496
