19
Iteration:  4318charge 0 multiplicity 1
 C        -0.146810         0.155455        -0.303782
 C         1.350288         0.023593         0.079162
 C         2.071437         0.698616         1.271155
 C         3.397685         0.502469         0.502336
 C         3.260087        -0.831806        -0.285894
 O         4.237635        -1.562017        -0.930976
 C         1.861762        -1.394070         0.154234
 C         2.590131         0.476262        -0.820629
 O         2.819531         0.819383        -2.088386
 H        -0.796911        -0.615451         0.081955
 H        -0.468813         1.067187        -0.034351
 H        -0.255532         0.173294        -1.355100
 H         1.691423         1.668725         1.556846
 H         1.765193         0.157889         2.174712
 H         4.330147         1.088704         0.549507
 H         4.735473        -1.003638        -1.437615
 H         1.556743        -2.085818        -0.645555
 H         1.716004        -1.871362         1.144371
 H         2.935278         1.755310        -2.188409
