19
Iteration:  1550charge 0 multiplicity 1
 C        -0.133906         0.177296        -0.204422
 C         1.334215         0.021127         0.063731
 C         2.070681         0.554844         1.347500
 C         3.344113         0.601683         0.459166
 C         3.288552        -0.780233        -0.238680
 O         4.334399        -1.502782        -0.770637
 C         1.954529        -1.381794        -0.029034
 C         2.655026         0.437716        -0.877455
 O         2.657753         0.782311        -2.168300
 H        -0.655564        -0.148383         0.644993
 H        -0.355561         1.240015        -0.371569
 H        -0.509868        -0.483268        -0.962432
 H         1.652577         1.608292         1.563817
 H         1.854437        -0.080385         2.156154
 H         4.351481         0.959471         0.535308
 H         4.590608        -0.964697        -1.626374
 H         1.686461        -1.848039        -0.991939
 H         1.675466        -2.057686         0.803904
 H         2.418206         1.756261        -2.279158
