19
Iteration:  1412
 C        -0.181092         0.101370        -0.190760
 C         1.361443        -0.029147         0.057609
 C         2.135165         0.743587         1.192285
 C         3.378229         0.520111         0.344896
 C         3.289074        -0.870666        -0.324030
 O         4.390573        -1.570497        -0.751525
 C         1.971216        -1.465969         0.132381
 C         2.561459         0.373171        -0.966176
 O         2.541146         1.101966        -2.128019
 H        -0.598163        -0.549358         0.577967
 H        -0.684480         1.030008        -0.162397
 H        -0.391839        -0.481622        -1.071466
 H         1.719048         1.704001         1.162122
 H         2.086882         0.309728         2.249226
 H         4.335429         0.969259         0.302056
 H         4.798176        -1.820922         0.208261
 H         1.633355        -2.188323        -0.617160
 H         2.003278        -1.947196         1.156795
 H         2.738634         2.033410        -2.003300
