19
Iteration:   266charge 0 multiplicity 1
 C        -0.041324         0.288909        -0.297153
 C         1.409760         0.018915         0.128571
 C         2.189887         0.819169         1.307367
 C         3.433864         0.589410         0.347490
 C         3.217045        -0.920807        -0.328045
 O         4.339831        -1.647048        -0.762253
 C         1.934365        -1.497126         0.166153
 C         2.582781         0.317735        -0.911802
 O         2.352049         0.996323        -2.150187
 H        -0.809110        -0.266991         0.167566
 H        -0.212885         1.365349        -0.204343
 H        -0.094471         0.111912        -1.466801
 H         1.971837         1.824225         1.448499
 H         2.114302         0.348692         2.288577
 H         4.432787         0.954700         0.512729
 H         4.628970        -2.045852        -0.048878
 H         1.686935        -2.137480        -0.752489
 H         1.972210        -2.046566         1.042116
 H         3.243868         0.938480        -2.645241
