19
Iteration:  4018
 C        -0.097719         0.266726        -0.343363
 C         1.341947        -0.019812         0.048979
 C         2.133501         0.605997         1.197819
 C         3.415572         0.459448         0.429577
 C         3.210588        -0.886656        -0.390906
 O         4.395851        -1.558638        -0.609104
 C         1.864649        -1.492036         0.102865
 C         2.562361         0.404492        -0.900703
 O         2.616110         1.043780        -2.075960
 H        -0.671887         0.408032         0.635333
 H        -0.341533         1.262068        -0.714087
 H        -0.444353        -0.307190        -1.190469
 H         1.897305         1.661903         1.407854
 H         2.069479         0.198637         2.248922
 H         4.420174         0.933492         0.553867
 H         4.375116        -1.855271        -1.591223
 H         1.503849        -2.259873        -0.622693
 H         2.000338        -1.898811         1.120187
 H         2.566145         2.060058        -1.917947
