19
Iteration:  3359
 C        -0.130310         0.303414        -0.292386
 C         1.364764         0.022483        -0.061557
 C         2.011422         0.632302         1.252277
 C         3.416638         0.418926         0.404301
 C         3.294839        -0.882366        -0.296328
 O         4.404194        -1.620538        -0.713977
 C         1.962234        -1.442639         0.116842
 C         2.589976         0.383565        -0.887521
 O         2.573701         1.088910        -2.082747
 H        -0.746146        -0.230899         0.418789
 H        -0.310513         1.389476        -0.158217
 H        -0.354961        -0.136120        -1.309477
 H         1.800335         1.766090         1.416876
 H         1.929636         0.068935         2.297228
 H         4.385445         0.807071         0.585706
 H         4.069618        -2.405324        -1.208155
 H         1.596548        -2.164880        -0.617151
 H         1.893287        -1.879819         1.124865
 H         2.714751         2.092547        -1.936955
