19
Iteration:  1897
 C        -0.060885         0.308973        -0.281611
 C         1.334241        -0.070359        -0.031176
 C         2.027439         0.601340         1.314176
 C         3.381119         0.602873         0.497221
 C         3.321790        -0.808503        -0.265684
 O         4.412028        -1.555169        -0.725509
 C         1.932280        -1.494572        -0.090702
 C         2.592173         0.419813        -0.813715
 O         2.495969         0.952640        -2.084039
 H        -0.528916         0.109211         0.708280
 H        -0.109203         1.402763        -0.377418
 H        -0.684362        -0.263483        -1.035026
 H         1.614345         1.584047         1.663869
 H         2.047319        -0.163568         2.219341
 H         4.261639         1.035120         0.900924
 H         4.477695        -1.709653        -1.589454
 H         1.636354        -1.880010        -1.159766
 H         1.693843        -2.205181         0.782892
 H         3.457232         1.047136        -2.403340
