19
Iteration:  3135
 C        -0.122051         0.196501        -0.374402
 C         1.420221         0.008289        -0.005758
 C         2.123083         0.705230         1.247741
 C         3.422908         0.419690         0.424673
 C         3.229838        -0.916563        -0.336225
 O         4.354123        -1.615158        -0.624727
 C         1.861084        -1.516644         0.174936
 C         2.659020         0.449118        -0.883917
 O         2.504824         1.162062        -2.117051
 H        -0.628345         0.050290         0.464873
 H        -0.333851         1.104385        -0.831266
 H        -0.419788        -0.463013        -1.224081
 H         2.006745         1.774275         1.408506
 H         2.077631        -0.089245         2.153312
 H         4.445083         0.631864         0.640968
 H         4.561009        -1.742168        -1.514059
 H         1.349022        -2.096334        -0.603705
 H         1.905832        -2.094713         1.068008
 H         2.895364         2.058391        -1.957308
