19
Iteration:  4558
 C        -0.106051         0.249853        -0.170560
 C         1.309565        -0.011775         0.021601
 C         2.066172         0.647351         1.206254
 C         3.367345         0.396638         0.470334
 C         3.249657        -0.868391        -0.335050
 O         4.393669        -1.483226        -0.666582
 C         1.864961        -1.449021        -0.003804
 C         2.569952         0.366561        -0.953174
 O         2.711680         1.141634        -2.147838
 H        -0.751420        -0.509083         0.347678
 H        -0.559002         1.075524         0.237118
 H        -0.283694         0.206649        -1.251293
 H         1.909127         1.681972         1.320402
 H         1.865525         0.295647         2.294260
 H         4.405629         0.583234         0.835751
 H         4.558279        -2.346429        -0.235948
 H         1.436871        -2.020532        -0.776616
 H         1.807111        -1.954942         0.978316
 H         2.806240         0.523413        -2.854949
