19
Iteration:  4744
 C        -0.097270         0.263671        -0.200337
 C         1.360311         0.071283         0.072612
 C         2.085974         0.671351         1.264284
 C         3.315241         0.462152         0.400085
 C         3.219513        -0.922397        -0.423953
 O         4.447384        -1.597314        -0.500156
 C         1.832596        -1.468581        -0.126582
 C         2.639651         0.405003        -0.916834
 O         2.590041         1.083419        -2.126491
 H        -0.607428        -0.496458         0.321590
 H        -0.386587         1.145024         0.335659
 H        -0.327046         0.209586        -1.286747
 H         1.798450         1.646871         1.514749
 H         2.054364         0.107829         2.221411
 H         4.319549         0.683012         0.743327
 H         4.189863        -2.131937        -1.373323
 H         1.391269        -1.871391        -1.070483
 H         1.834290        -2.216351         0.746197
 H         3.596035         1.391774        -2.256274
