19
Iteration:  4841charge 0 multiplicity 1
 C        -0.087104         0.231666        -0.386426
 C         1.343946         0.064302        -0.024222
 C         2.057915         0.658912         1.321261
 C         3.399138         0.433721         0.581033
 C         3.222129        -0.866753        -0.221455
 O         4.264092        -1.489717        -0.859282
 C         1.819585        -1.462947         0.022536
 C         2.668997         0.409285        -0.787645
 O         2.758879         0.866015        -2.067864
 H        -0.550549         0.215709         0.597763
 H        -0.380728         1.262577        -0.920892
 H        -0.297923        -0.737118        -1.063227
 H         1.843562         1.674448         1.520842
 H         2.045546         0.082997         2.212371
 H         4.371592         0.946076         0.736974
 H         4.436629        -1.068686        -1.775500
 H         1.517967        -2.056108        -0.806115
 H         1.706178        -1.872787         1.039235
 H         2.582583         1.934223        -2.068557
