19
Iteration:  2087charge 0 multiplicity 1
 C        -0.098069         0.324243        -0.203678
 C         1.345096        -0.008411         0.009601
 C         1.995292         0.513096         1.252306
 C         3.357288         0.494822         0.498388
 C         3.297383        -0.807713        -0.274299
 O         4.381913        -1.469888        -0.825824
 C         1.945769        -1.441788         0.002529
 C         2.636221         0.420584        -0.811095
 O         2.618607         1.007537        -2.097232
 H        -0.597347         0.124432         0.669253
 H        -0.288159         1.470094        -0.416498
 H        -0.508366        -0.318494        -0.938354
 H         1.606389         1.516666         1.484612
 H         1.791579        -0.032013         2.154742
 H         4.297976         0.728459         0.903427
 H         3.967914        -2.141762        -1.312999
 H         1.662533        -2.095953        -0.872577
 H         1.836686        -2.183418         0.836936
 H         3.214103         0.434638        -2.727227
