19
Iteration:  3857charge 0 multiplicity 1
 C        -0.197006         0.274222        -0.240447
 C         1.315930        -0.016318         0.078225
 C         2.063870         0.626596         1.314069
 C         3.373638         0.543294         0.456774
 C         3.190910        -0.846224        -0.339207
 O         4.327437        -1.447000        -0.787825
 C         1.869907        -1.487717         0.022328
 C         2.592899         0.453273        -0.822669
 O         2.871897         0.792657        -2.110249
 H        -0.776667         0.141817         0.583226
 H        -0.409524         1.326988        -0.585702
 H        -0.411478        -0.310368        -1.130958
 H         1.903164         1.791843         1.502378
 H         2.197332        -0.021073         2.270342
 H         4.369984         0.915198         0.529411
 H         4.241333        -1.604598        -1.720087
 H         1.292848        -2.019534        -0.731697
 H         1.933441        -2.078757         0.957491
 H         2.690435         1.785536        -2.233889
