19
Iteration:  1201
 C        -0.059636         0.141945        -0.232823
 C         1.425086        -0.057138         0.036286
 C         2.111910         0.763206         1.233663
 C         3.382315         0.585438         0.405904
 C         3.249345        -0.875500        -0.436502
 O         4.424930        -1.577943        -0.601774
 C         2.027108        -1.445180         0.150276
 C         2.552794         0.377067        -0.891077
 O         2.340384         1.005774        -2.176769
 H        -0.713922        -0.125241         0.647577
 H        -0.329106         1.111393        -0.518081
 H        -0.359296        -0.558349        -0.937553
 H         1.747104         1.799672         1.241430
 H         1.968904         0.360904         2.274862
 H         4.402854         0.745220         0.551793
 H         4.723864        -1.189795        -1.584848
 H         1.479424        -2.226500        -0.465277
 H         2.088721        -1.901826         1.186584
 H         3.206586         1.289859        -2.430219
