19
Iteration:  2894charge 0 multiplicity 1
 C        -0.094691         0.247038        -0.229285
 C         1.389394        -0.059874         0.025486
 C         2.063665         0.590064         1.350272
 C         3.383070         0.612962         0.469767
 C         3.275908        -0.775170        -0.289202
 O         4.355258        -1.605981        -0.737229
 C         1.921808        -1.445471        -0.068156
 C         2.602182         0.508591        -0.813779
 O         2.638065         0.921206        -2.156506
 H        -0.761199         0.108607         0.720314
 H        -0.244187         1.298824        -0.586600
 H        -0.588198        -0.508306        -0.998506
 H         1.546044         1.559625         1.338903
 H         1.993187        -0.005346         2.218691
 H         4.378282         0.933628         0.628936
 H         3.851832        -2.309806        -1.028772
 H         1.553256        -1.843618        -1.073796
 H         1.729403        -2.202658         0.712425
 H         2.896084         1.817969        -2.274316
