19
Iteration:  3454
 C        -0.106094         0.203315        -0.224212
 C         1.354177         0.032839         0.084896
 C         2.071880         0.648981         1.283337
 C         3.359329         0.497495         0.550180
 C         3.249345        -0.793242        -0.282025
 O         4.190351        -1.533328        -0.889002
 C         1.918444        -1.423703         0.047276
 C         2.607823         0.454723        -0.814273
 O         2.845457         0.805534        -2.143892
 H        -0.774388        -0.066052         0.577473
 H        -0.353227         1.238284        -0.448726
 H        -0.235004        -0.419234        -1.178024
 H         1.704176         1.740999         1.467354
 H         1.733725         0.096382         2.166821
 H         4.312844         0.940846         0.731319
 H         4.492443        -1.016176        -1.697293
 H         1.510946        -1.958522        -0.797999
 H         1.690825        -2.030600         0.966394
 H         2.627698         1.693812        -2.305242
