19
Iteration:  1132
 C        -0.103966         0.203378        -0.228271
 C         1.365982         0.009152         0.131958
 C         2.105208         0.711603         1.262486
 C         3.393504         0.636116         0.480081
 C         3.205410        -0.829925        -0.365698
 O         4.374478        -1.422156        -0.790272
 C         1.956561        -1.521398         0.127901
 C         2.600965         0.360227        -0.834926
 O         2.582338         0.725941        -2.251649
 H        -0.663634        -0.125241         0.573765
 H        -0.364320         1.290081        -0.379429
 H        -0.388756        -0.478243        -1.088661
 H         1.437666         1.719288         1.373276
 H         2.209494         0.372037         2.287038
 H         4.459276         0.976490         0.708995
 H         4.672563        -0.879060        -1.413044
 H         1.446380        -2.269824        -0.553645
 H         2.077309        -1.968304         1.130076
 H         2.258590         1.692010        -2.159224
