19
Iteration:  4607
 C        -0.079664         0.224223        -0.243293
 C         1.328616        -0.039146         0.005292
 C         2.004053         0.628083         1.264174
 C         3.330360         0.444899         0.470260
 C         3.227898        -0.844603        -0.310761
 O         4.289335        -1.628286        -0.717630
 C         1.951516        -1.466709         0.065215
 C         2.639283         0.405939        -0.924625
 O         2.703726         1.128186        -2.068877
 H        -0.820332         0.349217         0.630895
 H        -0.097286         1.388209        -0.441450
 H        -0.482289        -0.209649        -1.191619
 H         1.702601         1.729701         1.403135
 H         1.960482         0.104851         2.182226
 H         4.236737         0.988816         0.674662
 H         5.145036        -1.201976        -0.886237
 H         1.623208        -1.907981        -0.937868
 H         1.978332        -2.150910         0.933928
 H         2.771788         0.705391        -2.996318
