19
Iteration:  4165
 C        -0.004928         0.265222        -0.323566
 C         1.384242         0.041075         0.064513
 C         1.970016         0.757778         1.235409
 C         3.322681         0.501950         0.445217
 C         3.211806        -0.947908        -0.421759
 O         4.369114        -1.660620        -0.749062
 C         1.939157        -1.533373         0.137671
 C         2.632560         0.321816        -0.858355
 O         2.593851         1.085260        -2.027874
 H        -0.748129         0.036869         0.451041
 H        -0.282037         1.370156        -0.496632
 H        -0.230548        -0.306431        -1.263712
 H         1.638920         1.795684         1.022076
 H         1.942266         0.490666         2.317949
 H         4.361035         0.888447         0.578388
 H         4.641396        -1.519054        -1.588206
 H         1.391403        -2.210337        -0.499567
 H         2.080529        -2.061866         1.091648
 H         3.063979         1.864213        -1.831939
