19
Iteration:    37charge 0 multiplicity 1
 C        -0.062263         0.257667        -0.325961
 C         1.390870         0.002711         0.041239
 C         2.191840         0.744988         1.206540
 C         3.445920         0.562562         0.342442
 C         3.277468        -0.875165        -0.340559
 O         4.354783        -1.607783        -0.649181
 C         1.959168        -1.445990         0.168276
 C         2.618251         0.334981        -0.934451
 O         2.293779         0.939886        -2.099317
 H        -0.681649        -0.480573         0.086091
 H        -0.406797         1.263935        -0.023148
 H        -0.158515         0.209446        -1.528849
 H         1.937236         1.905094         1.281165
 H         2.276648         0.211956         2.209832
 H         4.444832         1.046272         0.456691
 H         4.642442        -2.027860         0.107981
 H         1.536365        -2.157349        -0.616997
 H         2.002842        -1.894226         1.161474
 H         2.898086         1.652882        -2.355561
