19
Iteration:   595charge 0 multiplicity 1
 C        -0.021033         0.315949        -0.299127
 C         1.415457         0.015775         0.154023
 C         2.152223         0.703099         1.274764
 C         3.423434         0.486279         0.426025
 C         3.208747        -0.866608        -0.324438
 O         4.288412        -1.513154        -0.812327
 C         1.973165        -1.476155         0.180365
 C         2.550484         0.330413        -0.902833
 O         2.472008         0.946349        -2.183901
 H        -0.601261         0.252617         0.555495
 H        -0.131501         1.368634        -0.691090
 H        -0.484176        -0.418508        -1.068809
 H         1.838730         1.692941         1.476283
 H         2.066411         0.188557         2.222741
 H         4.369074         0.979309         0.476922
 H         4.967694        -1.423388        -0.212429
 H         1.475811        -2.011745        -0.713877
 H         1.902122        -1.816854         1.175005
 H         2.728385         0.183209        -2.694806
