19
Iteration:  1540charge 0 multiplicity 1
 C        -0.107788         0.216542        -0.215457
 C         1.384232         0.001133         0.049552
 C         2.026622         0.581195         1.302320
 C         3.349139         0.580744         0.482935
 C         3.282603        -0.755392        -0.275885
 O         4.293533        -1.477527        -0.819623
 C         1.972256        -1.432462         0.017579
 C         2.576134         0.404070        -0.803641
 O         2.672234         0.767064        -2.181139
 H        -0.718728         0.054914         0.749505
 H        -0.390730         1.222577        -0.512512
 H        -0.464381        -0.361287        -1.029945
 H         1.686743         1.616950         1.681057
 H         2.182232        -0.088011         2.132519
 H         4.287581         0.973828         0.724573
 H         5.066846        -0.837369        -1.269550
 H         1.704812        -1.825530        -0.952546
 H         1.801473        -2.190598         0.790493
 H         2.328832         1.672038        -2.295602
