19
Iteration:    55charge 0 multiplicity 1
 C        -0.025382         0.285878        -0.375555
 C         1.422557         0.000237         0.075587
 C         2.202284         0.774191         1.159949
 C         3.435194         0.617202         0.270104
 C         3.313235        -0.908250        -0.206191
 O         4.410501        -1.657727        -0.690301
 C         1.918523        -1.448724         0.175626
 C         2.525871         0.292938        -0.874502
 O         2.324989         0.954135        -2.106227
 H        -0.703601        -0.547633        -0.040880
 H        -0.394071         1.193653         0.101331
 H        -0.099224         0.397681        -1.407799
 H         1.806963         1.706440         1.282689
 H         2.158263         0.349654         2.128519
 H         4.506766         0.884615         0.191981
 H         4.835837        -1.952543         0.016799
 H         1.600702        -1.999487        -0.706093
 H         1.653353        -2.008556         1.085049
 H         2.091914         1.894400        -1.914773
