19
Iteration:  2905charge 0 multiplicity 1
 C        -0.087493         0.285244        -0.245196
 C         1.372286         0.029601         0.048373
 C         1.999905         0.576295         1.242811
 C         3.406724         0.478081         0.527172
 C         3.272743        -0.780379        -0.359855
 O         4.320090        -1.531999        -0.710265
 C         1.976822        -1.467094        -0.022127
 C         2.660207         0.415847        -0.872751
 O         2.578582         0.946527        -2.125860
 H        -0.613847         0.182952         0.799951
 H        -0.410197         1.244045        -0.721800
 H        -0.517960        -0.528358        -1.011419
 H         1.845734         1.650216         1.440927
 H         1.936627         0.133406         2.196250
 H         4.337781         0.949077         0.742580
 H         3.991406        -2.427138        -1.132763
 H         1.613481        -2.062162        -0.924965
 H         2.043131        -2.081377         0.892475
 H         2.917480         1.886758        -2.028935
