19
Iteration:  2899
 C        -0.101085         0.261540        -0.233275
 C         1.410020        -0.021682         0.040161
 C         2.015728         0.574694         1.315057
 C         3.396586         0.556913         0.487101
 C         3.277111        -0.743943        -0.324299
 O         4.338286        -1.576025        -0.723160
 C         1.934296        -1.459793        -0.054619
 C         2.635945         0.460847        -0.826852
 O         2.608754         0.926729        -2.145783
 H        -0.639733         0.131625         0.655056
 H        -0.405379         1.190985        -0.711506
 H        -0.547859        -0.352218        -0.918150
 H         1.638130         1.645131         1.210478
 H         2.018550        -0.069628         2.293291
 H         4.453741         0.947596         0.667158
 H         3.812485        -2.411717        -1.066659
 H         1.590416        -1.896890        -0.965335
 H         1.912105        -2.184297         0.785350
 H         2.931813         1.875812        -2.187500
