19
Iteration:   248
 C        -0.042323         0.374196        -0.402816
 C         1.378606         0.006617         0.068727
 C         2.233722         0.672112         1.161007
 C         3.434187         0.481175         0.326762
 C         3.334780        -0.865701        -0.307740
 O         4.389900        -1.658264        -0.740432
 C         1.955828        -1.411220         0.182386
 C         2.562110         0.370382        -0.860878
 O         2.255613         0.977289        -1.990351
 H        -0.771621         0.023005         0.343403
 H        -0.192061         1.466981        -0.576924
 H        -0.356374        -0.157770        -1.298198
 H         1.830834         1.767300         1.205400
 H         2.229277         0.195926         2.141956
 H         4.408002         1.081247         0.407274
 H         4.727343        -2.053063        -0.052817
 H         1.340153        -2.016765        -0.424947
 H         1.880842        -1.826322         1.296479
 H         3.018619         0.910784        -2.662380
