19
Iteration:  4224charge 0 multiplicity 1
 C        -0.065000         0.263425        -0.240865
 C         1.327135        -0.033611         0.050484
 C         2.111230         0.624653         1.277340
 C         3.298593         0.480260         0.372251
 C         3.168113        -0.879583        -0.426184
 O         4.450520        -1.553456        -0.613447
 C         1.890166        -1.485345        -0.000458
 C         2.562087         0.440331        -0.900210
 O         2.672906         1.024212        -2.102411
 H        -0.588150         0.429466         0.741993
 H         0.153593         1.281961        -0.839091
 H        -0.636647        -0.375813        -1.013077
 H         1.884391         1.610355         1.650793
 H         2.293865         0.228002         2.272623
 H         4.240343         0.956914         0.586612
 H         3.988725        -2.516570        -0.834227
 H         1.497296        -1.901358        -0.958426
 H         1.824361        -2.169586         0.855796
 H         2.598817         2.030395        -1.902528
