19
Iteration:  1346charge 0 multiplicity 1
 C        -0.117204         0.247944        -0.215782
 C         1.309404        -0.024669         0.111069
 C         2.065743         0.590458         1.280598
 C         3.353166         0.610816         0.478358
 C         3.278671        -0.766235        -0.270125
 O         4.358855        -1.397071        -0.859876
 C         1.992810        -1.441452         0.080690
 C         2.552977         0.438050        -0.830558
 O         2.623865         0.639637        -2.197151
 H        -0.751746         0.008320         0.644603
 H        -0.410610         1.213263        -0.546808
 H        -0.393026        -0.412501        -1.011843
 H         1.710289         1.567338         1.446784
 H         2.196704         0.015896         2.261694
 H         4.409045         1.000441         0.739773
 H         4.795840        -0.731885        -1.616971
 H         1.708751        -2.040580        -0.791709
 H         1.878674        -1.991770         1.075842
 H         2.639225         1.650547        -2.205967
