19
Iteration:  3640
 C        -0.093251         0.224996        -0.315901
 C         1.306419         0.043437         0.082615
 C         2.044887         0.663403         1.325746
 C         3.371853         0.485384         0.517574
 C         3.206705        -0.867268        -0.244361
 O         4.275479        -1.407741        -0.947945
 C         1.877143        -1.501550         0.108031
 C         2.591568         0.387254        -0.787065
 O         2.863893         0.830441        -2.127597
 H        -0.862734        -0.054802         0.596454
 H        -0.390403         1.306097        -0.494257
 H        -0.326985        -0.331195        -1.169474
 H         1.776730         1.782214         1.457558
 H         1.931703         0.228891         2.329971
 H         4.382710         0.986471         0.570671
 H         4.120338        -1.404321        -1.859401
 H         1.343942        -2.007652        -0.689501
 H         1.769982        -2.206622         0.992144
 H         3.103266         1.733329        -2.069156
