19
Iteration:  3179charge 0 multiplicity 1
 C        -0.195591         0.335462        -0.310886
 C         1.271103        -0.072200         0.076770
 C         2.060117         0.750866         1.204278
 C         3.359530         0.533101         0.367728
 C         3.236934        -0.890570        -0.258720
 O         4.406434        -1.492899        -0.807763
 C         1.987928        -1.603106         0.142596
 C         2.515037         0.295778        -0.857727
 O         2.783357         1.006312        -2.020295
 H        -0.824028        -0.132980         0.352255
 H        -0.330453         1.379972        -0.140654
 H        -0.406768         0.207023        -1.424628
 H         1.780304         1.732731         0.992774
 H         2.102003         0.259493         2.243378
 H         4.345282         0.909346         0.343347
 H         4.010833        -2.262781        -1.305639
 H         1.690754        -2.215336        -0.727727
 H         1.851505        -2.199358         1.017502
 H         2.666099         1.943036        -1.769874
