19
Iteration:  1473charge 0 multiplicity 1
 C        -0.123345         0.143268        -0.251084
 C         1.295804        -0.111294         0.057936
 C         2.091580         0.727720         1.192178
 C         3.394385         0.487692         0.353043
 C         3.243002        -0.873911        -0.317900
 O         4.481860        -1.457724        -0.739337
 C         1.955609        -1.474002         0.172530
 C         2.577564         0.362814        -0.881421
 O         2.538987         1.058030        -2.094334
 H        -0.785232        -0.325718         0.583674
 H        -0.331479         1.261967        -0.294619
 H        -0.463728        -0.347086        -1.215723
 H         1.586866         1.790115         1.175777
 H         2.154747         0.355854         2.191212
 H         4.456859         0.976268         0.449198
 H         4.241281        -2.323156        -1.221227
 H         1.406305        -2.081636        -0.569502
 H         1.946311        -1.974902         1.131251
 H         2.977570         1.947374        -2.098393
