19
Iteration:  4134
 C        -0.137565         0.194726        -0.323923
 C         1.310420        -0.010752         0.042552
 C         2.095485         0.686317         1.300067
 C         3.367514         0.513379         0.429426
 C         3.264975        -0.854125        -0.213672
 O         4.246955        -1.541144        -0.849540
 C         1.876535        -1.458736         0.140154
 C         2.573453         0.332734        -0.835818
 O         2.797899         0.922302        -2.101797
 H        -0.847695        -0.361334         0.279999
 H        -0.404547         1.336194        -0.177520
 H        -0.286854         0.166764        -1.445309
 H         1.736915         1.635042         1.279752
 H         2.139697         0.498582         2.275453
 H         4.374651         1.017860         0.430967
 H         4.677867        -1.073143        -1.711765
 H         1.611986        -2.148949        -0.665596
 H         1.843693        -1.918021         1.133353
 H         2.961046         1.921474        -1.944032
