19
Iteration:  4240
 C        -0.091783         0.369223        -0.174050
 C         1.329970        -0.066505         0.047824
 C         2.039813         0.604841         1.235516
 C         3.373375         0.505424         0.476233
 C         3.253723        -0.856474        -0.341150
 O         4.378668        -1.502073        -0.665515
 C         1.887687        -1.534146        -0.029466
 C         2.604594         0.400958        -0.909277
 O         2.711102         1.003392        -2.160546
 H        -0.716271         0.272436         0.722828
 H        -0.246671         1.315866        -0.519205
 H        -0.565800        -0.365910        -0.765655
 H         1.672814         1.656532         1.072991
 H         1.854057        -0.032922         2.133216
 H         4.447982         0.790704         0.595263
 H         4.282543        -2.462017        -1.013630
 H         1.431314        -2.144255        -0.816331
 H         1.836577        -2.105280         0.929058
 H         2.542397         2.006296        -2.093475
