19
Iteration:  1433charge 0 multiplicity 1
 C        -0.104963        -0.030242        -0.224138
 C         1.415857        -0.012242         0.054489
 C         2.131140         0.740770         1.170399
 C         3.369022         0.635499         0.346962
 C         3.291973        -0.821772        -0.342541
 O         4.319692        -1.746024        -0.655168
 C         1.941473        -1.396065         0.098078
 C         2.586719         0.441242        -0.940191
 O         2.484871         1.123789        -2.112770
 H        -0.681581        -0.638032         0.610975
 H        -0.389665         0.959073        -0.083248
 H        -0.457432        -0.553817        -1.045836
 H         1.774467         1.721534         1.380478
 H         2.137932         0.022121         2.071990
 H         4.336999         1.091329         0.410645
 H         5.080690        -1.259766        -0.684047
 H         1.544539        -2.013781        -0.691045
 H         1.879933        -1.930622         1.072551
 H         3.053815         1.899422        -2.021148
