19
Iteration:  3310charge 0 multiplicity 1
 C        -0.112599         0.188550        -0.406771
 C         1.362676         0.003255         0.073824
 C         2.158801         0.731622         1.265867
 C         3.402624         0.469826         0.414729
 C         3.222670        -0.909386        -0.367993
 O         4.349378        -1.630642        -0.753997
 C         1.834283        -1.475639         0.140901
 C         2.557578         0.356815        -0.847045
 O         2.635012         1.077959        -2.018345
 H        -0.817380         0.024171         0.486715
 H        -0.258591         1.209631        -0.816740
 H        -0.354810        -0.766305        -1.064089
 H         1.972270         1.754974         1.391349
 H         2.037654         0.328057         2.256834
 H         4.358274         1.069389         0.433943
 H         4.776526        -1.109779        -1.533609
 H         1.309503        -2.025452        -0.656565
 H         1.818127        -1.918315         1.135383
 H         3.028694         1.916719        -1.858148
