19
Iteration:  4333charge 0 multiplicity 1
 C        -0.119690         0.200953        -0.335578
 C         1.329527         0.046504        -0.012595
 C         2.003426         0.733115         1.309644
 C         3.355459         0.542883         0.552492
 C         3.260525        -0.863866        -0.296617
 O         4.245697        -1.608858        -0.902106
 C         1.954470        -1.431334         0.147534
 C         2.649038         0.372412        -0.810853
 O         2.773895         0.884102        -2.090000
 H        -0.662777        -0.568400         0.177849
 H        -0.525603         1.222666         0.039630
 H        -0.490664         0.032577        -1.372970
 H         1.988497         1.793849         1.240008
 H         2.082084         0.124774         2.235509
 H         4.342047         0.905784         0.791565
 H         4.595657        -1.004936        -1.682744
 H         1.418770        -2.077995        -0.622179
 H         2.010949        -1.836398         1.155890
 H         2.472412         1.814804        -2.041740
