19
Iteration:  2438charge 0 multiplicity 1
 C        -0.087410         0.198471        -0.338941
 C         1.361133        -0.023829         0.044926
 C         2.001021         0.613241         1.289768
 C         3.358649         0.636826         0.490123
 C         3.298986        -0.848429        -0.325277
 O         4.280997        -1.637966        -0.764672
 C         1.983697        -1.476309         0.054656
 C         2.633756         0.402715        -0.846338
 O         2.611636         1.053882        -2.041294
 H        -0.743491        -0.498364        -0.008057
 H        -0.404545         1.216221        -0.158538
 H        -0.064160         0.140859        -1.381237
 H         1.628935         1.592422         1.636763
 H         2.027090         0.086931         2.308724
 H         4.317751         0.914690         0.733413
 H         4.120073        -1.575823        -1.716638
 H         1.773810        -2.026758        -0.871158
 H         1.841946        -2.095206         0.977702
 H         3.354139         1.586395        -2.349039
