19
Iteration:  3678charge 0 multiplicity 1
 C        -0.232603         0.259315        -0.255999
 C         1.310254         0.000307         0.110926
 C         2.056345         0.630184         1.320364
 C         3.403333         0.465998         0.561527
 C         3.246086        -0.803779        -0.264972
 O         4.291997        -1.441226        -0.958354
 C         1.823968        -1.461372         0.111527
 C         2.649248         0.410773        -0.839292
 O         2.898953         0.782830        -2.147630
 H        -0.846728         0.009155         0.531788
 H        -0.327064         1.288788        -0.537824
 H        -0.615184        -0.417370        -1.094573
 H         1.732440         1.775231         1.303193
 H         1.848960         0.061011         2.319049
 H         4.317049         0.976338         0.753390
 H         4.486551        -0.857614        -1.620728
 H         1.590868        -1.929346        -0.859582
 H         1.725857        -2.084350         1.000584
 H         2.697320         1.714109        -2.331564
