19
Iteration:   421charge 0 multiplicity 1
 C        -0.034101         0.346021        -0.301333
 C         1.374485        -0.105702         0.189336
 C         2.195200         0.754026         1.149290
 C         3.373454         0.531717         0.246524
 C         3.241781        -0.931373        -0.342304
 O         4.347368        -1.624741        -0.711178
 C         1.990353        -1.563058         0.234060
 C         2.562813         0.272715        -0.969451
 O         2.406874         1.188378        -2.033249
 H        -0.594467         0.660540         0.537410
 H        -0.032379         1.237026        -1.009909
 H        -0.621337        -0.518647        -0.793876
 H         2.004480         1.803814         0.971300
 H         2.208205         0.540138         2.333031
 H         4.338676         0.943051         0.540842
 H         4.927969        -1.816287        -0.041982
 H         1.512707        -2.131865        -0.632966
 H         1.802115        -2.118850         1.119703
 H         2.665405         0.761054        -2.888570
