19
Iteration:  1430
 C        -0.110990        -0.035092        -0.204004
 C         1.398703        -0.002002         0.042847
 C         2.129889         0.714909         1.155718
 C         3.370986         0.644337         0.331317
 C         3.283496        -0.822015        -0.338302
 O         4.316246        -1.734702        -0.670875
 C         1.940851        -1.400876         0.109983
 C         2.603238         0.423545        -0.936707
 O         2.482544         1.123094        -2.114728
 H        -0.768856        -0.666888         0.625632
 H        -0.370164         1.057791        -0.100327
 H        -0.453250        -0.570164        -1.118154
 H         1.873567         1.828448         1.386098
 H         2.152732         0.065729         2.024590
 H         4.432778         1.132804         0.557334
 H         5.296359        -1.257309        -0.499212
 H         1.524405        -2.020417        -0.683294
 H         1.838614        -1.907954         1.047831
 H         3.024454         1.876464        -1.912463
