19
Iteration:  3945charge 0 multiplicity 1
 C        -0.108646         0.249658        -0.295690
 C         1.313195        -0.022000         0.009980
 C         2.132300         0.610677         1.229251
 C         3.365366         0.479294         0.422395
 C         3.255998        -0.860605        -0.305864
 O         4.383790        -1.509360        -0.722325
 C         1.832291        -1.455936         0.195125
 C         2.525493         0.346420        -0.913812
 O         2.734181         1.017785        -2.133242
 H        -0.856875        -0.330750         0.319982
 H        -0.428949         1.367550        -0.168365
 H        -0.268677         0.075560        -1.391020
 H         1.816019         1.677211         1.502162
 H         2.117535         0.182181         2.274744
 H         4.411815         0.840450         0.612491
 H         4.230639        -1.974039        -1.660408
 H         1.338170        -2.156964        -0.485952
 H         1.729061        -1.906007         1.205713
 H         2.972350         1.946871        -1.922016
