19
Iteration:   710
 C        -0.239453         0.113207        -0.012633
 C         1.316135         0.068673         0.078639
 C         2.118296         0.749187         1.169353
 C         3.415589         0.624697         0.298296
 C         3.304371        -0.857787        -0.226970
 O         4.235141        -1.548987        -0.883632
 C         1.855458        -1.450033         0.141077
 C         2.563220         0.285991        -0.914687
 O         2.829262         1.001263        -2.180120
 H        -0.663316        -0.674648         0.768281
 H        -0.647718         1.089323         0.119652
 H        -0.519798        -0.276232        -0.941787
 H         1.925342         1.781382         1.331964
 H         1.976403         0.275672         2.128877
 H         4.295440         1.188033         0.268199
 H         5.029010        -1.596645        -0.101404
 H         1.544990        -2.044179        -0.665796
 H         1.615367        -1.758273         1.210483
 H         3.145707         0.407404        -2.810719
