19
Iteration:  1283charge 0 multiplicity 1
 C        -0.169891         0.154742        -0.151618
 C         1.336332        -0.058077         0.027427
 C         2.049334         0.770649         1.178795
 C         3.290290         0.558588         0.383495
 C         3.257569        -0.886083        -0.343837
 O         4.456538        -1.416364        -0.855350
 C         1.987149        -1.526967         0.223189
 C         2.602962         0.307832        -0.894407
 O         2.621553         0.959119        -2.167036
 H        -0.571986        -0.502080         0.570055
 H        -0.468399         1.264330         0.017350
 H        -0.529679        -0.057114        -1.254459
 H         1.769946         1.834965         1.226032
 H         2.194893         0.473753         2.221947
 H         4.308896         1.021921         0.542658
 H         4.555354        -2.350413        -0.274317
 H         1.570059        -2.332962        -0.383939
 H         2.095798        -1.762323         1.292451
 H         2.319419         1.906695        -1.995503
