19
Iteration:  4838charge 0 multiplicity 1
 C        -0.098416         0.222404        -0.417070
 C         1.361850         0.076745        -0.013616
 C         2.054349         0.651622         1.318927
 C         3.429441         0.454521         0.584408
 C         3.208492        -0.866661        -0.198988
 O         4.245616        -1.481845        -0.875821
 C         1.822332        -1.484251         0.024220
 C         2.686124         0.406627        -0.815660
 O         2.758219         0.877084        -2.059968
 H        -0.672767         0.232346         0.499335
 H        -0.352522         1.189331        -0.836727
 H        -0.376047        -0.612730        -1.032100
 H         1.818046         1.750297         1.654812
 H         1.970690         0.150495         2.330322
 H         4.397902         0.886560         0.751473
 H         4.444345        -1.178909        -1.708826
 H         1.495838        -2.129701        -0.770236
 H         1.891990        -1.866959         0.988154
 H         2.489684         1.745503        -1.993679
