19
Iteration:   261
 C        -0.056922         0.330857        -0.342497
 C         1.382016         0.024819         0.129444
 C         2.177984         0.758786         1.273114
 C         3.441001         0.576786         0.340488
 C         3.248874        -0.901696        -0.319092
 O         4.353262        -1.653946        -0.763476
 C         1.962385        -1.466895         0.158771
 C         2.588773         0.319226        -0.893575
 O         2.326222         0.993444        -2.112572
 H        -0.885286        -0.243869         0.241307
 H        -0.299221         1.411365        -0.333285
 H        -0.052627         0.033303        -1.340635
 H         1.976497         1.899517         1.391671
 H         2.185685         0.313899         2.360831
 H         4.522572         0.857048         0.310854
 H         4.735759        -2.189248         0.114755
 H         1.663777        -2.087787        -0.666070
 H         1.978015        -2.074418         1.154268
 H         3.094718         0.975874        -2.684030
