19
Iteration:  1680
 C        -0.082266         0.179839        -0.379265
 C         1.323263         0.014666         0.079525
 C         2.146486         0.573511         1.334391
 C         3.354529         0.533326         0.434873
 C         3.242379        -0.867099        -0.327538
 O         4.409859        -1.486136        -0.746276
 C         1.892034        -1.443986         0.067636
 C         2.585408         0.388890        -0.813731
 O         2.600388         0.986205        -2.106890
 H        -0.665789        -0.019776         0.462662
 H        -0.324865         1.366684        -0.557304
 H        -0.309926        -0.333554        -1.403347
 H         2.021568         1.677696         1.532226
 H         2.132568         0.025186         2.245092
 H         4.247689         0.978768         0.590506
 H         4.323876        -2.015604        -1.457612
 H         1.397582        -1.993302        -0.770452
 H         1.901618        -2.079198         0.974538
 H         2.308901         1.870759        -2.016564
