19
Iteration:   863charge 0 multiplicity 1
 C        -0.149958         0.110092        -0.133425
 C         1.347743        -0.051503         0.100777
 C         2.182118         0.821780         1.151669
 C         3.361270         0.502237         0.251282
 C         3.249629        -0.926660        -0.414996
 O         4.334539        -1.702511        -0.615922
 C         1.966804        -1.504346         0.173520
 C         2.519126         0.376567        -0.959726
 O         2.539951         1.188852        -2.131215
 H        -0.871348        -0.207475         0.741066
 H        -0.276804         1.158326        -0.248344
 H        -0.366651        -0.293352        -1.066965
 H         1.964134         1.842546         0.917805
 H         2.084266         0.579579         2.289363
 H         4.247270         1.207082         0.416513
 H         5.177473        -1.123848        -0.641246
 H         1.600543        -2.193350        -0.571483
 H         2.029039        -2.127840         1.118342
 H         3.422661         1.461366        -2.335901
