19
Iteration:   753charge 0 multiplicity 1
 C        -0.109463         0.329465        -0.119141
 C         1.333394         0.019083         0.108958
 C         2.047598         0.723714         1.235322
 C         3.350415         0.488573         0.453809
 C         3.230753        -0.854118        -0.273530
 O         4.351544        -1.347516        -0.930492
 C         1.935660        -1.484344         0.169857
 C         2.582709         0.378614        -0.899373
 O         2.703820         0.785085        -2.196372
 H        -0.824382        -0.329114         0.552664
 H        -0.322828         1.378531        -0.098881
 H        -0.465583        -0.041682        -1.017636
 H         1.765084         1.723482         1.227768
 H         1.967935         0.282806         2.233169
 H         4.204253         1.093136         0.518116
 H         4.776300        -2.079532        -0.540658
 H         1.513763        -2.107612        -0.639964
 H         2.121599        -2.090699         1.134780
 H         2.662497        -0.003022        -2.761745
