19
Iteration:  3226
 C        -0.174873         0.203732        -0.163459
 C         1.319036         0.104546        -0.006328
 C         2.117300         0.617459         1.343205
 C         3.359320         0.489801         0.504289
 C         3.179025        -0.824684        -0.298273
 O         4.351172        -1.502787        -0.689126
 C         1.876076        -1.385764        -0.088334
 C         2.641852         0.499916        -0.869725
 O         2.754455         0.756596        -2.197759
 H        -0.513183        -0.487487         0.514020
 H        -0.681151         1.139868        -0.066239
 H        -0.364669        -0.102012        -1.128058
 H         1.931152         1.679795         1.606081
 H         2.032357        -0.227169         2.077826
 H         4.385052         0.833737         0.846199
 H         4.505536        -1.124734        -1.490946
 H         1.460340        -1.966998        -0.877778
 H         1.702041        -1.976572         0.855102
 H         2.778832         1.735241        -2.504913
