19
Iteration:  2101charge 0 multiplicity 1
 C        -0.157912         0.250687        -0.225833
 C         1.365855         0.021660        -0.032565
 C         2.011115         0.623217         1.279487
 C         3.369604         0.482741         0.634464
 C         3.258346        -0.841797        -0.258252
 O         4.388201        -1.473413        -0.946811
 C         1.924758        -1.461817        -0.061897
 C         2.701362         0.469403        -0.782776
 O         2.603481         0.937982        -2.064908
 H        -0.692648         0.234934         0.793104
 H        -0.357465         1.231107        -0.578175
 H        -0.652424        -0.476013        -0.880497
 H         1.833017         1.742945         1.347432
 H         1.934031        -0.005939         2.181551
 H         4.363544         1.058807         0.923327
 H         4.228113        -2.549976        -0.981654
 H         1.475388        -1.841565        -0.966924
 H         1.657853        -2.020110         0.903509
 H         3.403909         0.701435        -2.492893
