19
Iteration:  2137
 C        -0.098205         0.196284        -0.280681
 C         1.324870        -0.022220         0.101620
 C         2.129568         0.663666         1.248315
 C         3.323871         0.450608         0.461501
 C         3.190856        -0.939838        -0.327074
 O         4.262843        -1.442946        -0.937339
 C         1.860633        -1.547544         0.062616
 C         2.581663         0.419727        -0.809452
 O         2.757146         1.076514        -2.032266
 H        -0.841019         0.214677         0.634570
 H        -0.029005         1.179636        -0.731866
 H        -0.534032        -0.377097        -1.159669
 H         1.837374         1.686935         1.489080
 H         2.135436         0.172111         2.276681
 H         4.300799         0.860800         0.614140
 H         5.100113        -1.169452        -0.348063
 H         1.347098        -2.080827        -0.770337
 H         1.692661        -2.121472         1.020086
 H         3.639604         0.881560        -2.302971
