19
Iteration:  3038
 C        -0.205620         0.300168        -0.193129
 C         1.243113        -0.074435         0.178908
 C         2.078548         0.693850         1.288895
 C         3.327874         0.510920         0.397445
 C         3.161524        -0.892593        -0.358619
 O         4.441112        -1.370285        -0.809261
 C         1.819467        -1.531028         0.077530
 C         2.623371         0.367676        -0.876658
 O         2.919069         0.858623        -2.126404
 H        -0.950501        -0.293476         0.511693
 H        -0.392800         1.384492        -0.130558
 H        -0.365705         0.043746        -1.312289
 H         1.825692         1.737365         1.164525
 H         2.160273         0.260049         2.229248
 H         4.421400         0.596360         0.633280
 H         4.231147        -1.641756        -1.661029
 H         1.338343        -2.044648        -0.783336
 H         1.636298        -2.103017         1.036523
 H         2.502402         1.779440        -2.190599
