19
Iteration:  3237
 C        -0.258974         0.233701        -0.176971
 C         1.334188         0.044203         0.058412
 C         2.122903         0.615362         1.276796
 C         3.375471         0.560227         0.526554
 C         3.259805        -0.786338        -0.242299
 O         4.302522        -1.515975        -0.723038
 C         1.853725        -1.438784        -0.083373
 C         2.658257         0.409279        -0.843834
 O         2.782828         0.774398        -2.242368
 H        -0.779557        -0.291257         0.545971
 H        -0.460200         1.269048        -0.047891
 H        -0.607146        -0.118389        -1.095025
 H         1.790085         1.574006         1.722846
 H         2.159139         0.020768         2.247373
 H         4.369198         1.074240         0.633418
 H         4.769456        -1.055217        -1.410058
 H         1.730832        -1.747432        -1.098046
 H         1.628745        -2.247671         0.642910
 H         2.628254         1.754947        -2.182861
