19
Iteration:   692charge 0 multiplicity 1
 C        -0.166221         0.049890        -0.058724
 C         1.296608         0.030176         0.036932
 C         2.148971         0.780643         1.182707
 C         3.374651         0.519313         0.335769
 C         3.180777        -0.858503        -0.375397
 O         4.272632        -1.633522        -0.800740
 C         1.918881        -1.345337         0.195279
 C         2.548494         0.403744        -0.959828
 O         2.772769         1.048215        -2.138819
 H        -0.496612        -0.431357         0.811354
 H        -0.558832         1.091048        -0.038925
 H        -0.479620        -0.520158        -1.035427
 H         1.881360         1.940312         1.354461
 H         2.259636         0.420673         2.245226
 H         4.354617         1.062006         0.424516
 H         5.086668        -1.791625        -0.065187
 H         1.437255        -1.962350        -0.610610
 H         1.969474        -1.818996         1.179297
 H         2.923943         0.450821        -2.827082
