19
Iteration:  3921charge 0 multiplicity 1
 C        -0.158394         0.321965        -0.164222
 C         1.277632        -0.024222         0.121772
 C         2.094090         0.693373         1.267069
 C         3.307928         0.525909         0.393206
 C         3.215901        -0.906028        -0.346881
 O         4.433567        -1.457903        -0.692614
 C         1.849652        -1.504739        -0.009229
 C         2.578249         0.340854        -0.899077
 O         2.813876         0.868772        -2.153742
 H        -0.894133        -0.370142         0.490643
 H        -0.500693         1.412791         0.093309
 H        -0.401271         0.169145        -1.263211
 H         1.748451         1.651949         1.475455
 H         1.977123         0.257217         2.249893
 H         4.370010         0.732748         0.500693
 H         4.493879        -1.487924        -1.604734
 H         1.241623        -1.945313        -0.808787
 H         1.748879        -2.205072         0.842505
 H         3.020653         1.868293        -2.087896
