19
Iteration:  1344charge 0 multiplicity 1
 C        -0.113829         0.239005        -0.225851
 C         1.303604        -0.012363         0.112986
 C         2.050058         0.585521         1.294853
 C         3.375587         0.632580         0.481982
 C         3.267626        -0.771841        -0.285013
 O         4.355517        -1.396278        -0.869068
 C         1.994039        -1.445377         0.075957
 C         2.557596         0.444398        -0.821421
 O         2.625067         0.630610        -2.204260
 H        -0.798986        -0.017394         0.684773
 H        -0.361418         1.228897        -0.508363
 H        -0.361449        -0.449145        -0.968846
 H         1.711380         1.625193         1.472239
 H         2.197206         0.021653         2.258590
 H         4.445814         1.014240         0.737523
 H         4.788027        -0.758878        -1.481959
 H         1.694198        -2.041992        -0.794281
 H         1.871101        -2.005077         1.029137
 H         2.641748         1.589564        -2.165660
