19
Iteration:  4734charge 0 multiplicity 1
 C        -0.116793         0.260189        -0.156042
 C         1.348841        -0.050828         0.017601
 C         2.147320         0.629883         1.212729
 C         3.365235         0.565560         0.406863
 C         3.197620        -0.829941        -0.341535
 O         4.386079        -1.619777        -0.502455
 C         1.857770        -1.478428        -0.169806
 C         2.632666         0.414858        -0.918518
 O         2.613196         1.098690        -2.070410
 H        -0.718309        -0.516776         0.238440
 H        -0.458716         1.208809         0.079558
 H        -0.368366         0.176454        -1.192676
 H         1.892600         1.690741         1.387081
 H         2.015927        -0.004254         2.169869
 H         4.411827         0.675886         0.667099
 H         4.365157        -2.218119        -1.341685
 H         1.265130        -1.965332        -0.952236
 H         1.613931        -2.071901         0.751685
 H         3.535840         1.263319        -2.550471
