19
Iteration:   772
 C        -0.115787         0.301111        -0.257783
 C         1.316629        -0.043867         0.047499
 C         2.140933         0.692496         1.308557
 C         3.466981         0.663643         0.383610
 C         3.247313        -0.864437        -0.236786
 O         4.386934        -1.353257        -0.928828
 C         1.882899        -1.468266         0.177856
 C         2.544408         0.296415        -0.865850
 O         2.567773         0.809519        -2.121544
 H        -0.786506        -0.014248         0.554476
 H        -0.181462         1.418133        -0.360883
 H        -0.498478        -0.138834        -1.194853
 H         1.919376         1.735546         1.530632
 H         2.236216         0.054038         2.267722
 H         4.453471         0.831926         0.680680
 H         4.748644        -2.136683        -0.392003
 H         1.510949        -2.198172        -0.637566
 H         1.518929        -1.864472         1.088063
 H         2.736979         0.127048        -2.727240
