19
Iteration:  1704
 C        -0.097900         0.414487        -0.219044
 C         1.283974        -0.133929         0.030430
 C         2.010483         0.585732         1.232862
 C         3.300309         0.473059         0.504210
 C         3.240730        -0.842771        -0.349997
 O         4.440342        -1.335939        -0.850456
 C         1.953213        -1.576099         0.120069
 C         2.582755         0.326678        -0.853489
 O         2.697393         0.932770        -2.104444
 H        -0.830519         0.311835         0.551127
 H        -0.075775         1.563351        -0.497321
 H        -0.365492        -0.037108        -1.203081
 H         1.670607         1.675391         1.248881
 H         1.994144         0.157010         2.195528
 H         4.339603         0.858510         0.762084
 H         4.459248        -2.389569        -0.996768
 H         1.780214        -2.310112        -0.663541
 H         2.079712        -2.118647         1.102246
 H         2.201238         1.803879        -2.108555
