19
Iteration:  3603charge 0 multiplicity 1
 C        -0.114614         0.343204        -0.230603
 C         1.382422        -0.008478         0.022667
 C         2.022522         0.692343         1.257804
 C         3.368100         0.448925         0.444856
 C         3.216176        -0.924359        -0.369938
 O         4.411914        -1.553605        -0.687808
 C         1.930262        -1.556682         0.055054
 C         2.553207         0.370372        -0.882242
 O         2.709041         1.042348        -2.108497
 H        -0.674911        -0.343868         0.540041
 H        -0.343402         1.470988        -0.008068
 H        -0.422502         0.178698        -1.372632
 H         1.875397         1.667277         1.228123
 H         1.865992         0.098514         2.134044
 H         4.300832         0.950854         0.439533
 H         4.201431        -1.975918        -1.536535
 H         1.312220        -2.163588        -0.664973
 H         1.971871        -2.013178         1.028833
 H         2.425375         1.952363        -1.919935
