19
Iteration:  2621charge 0 multiplicity 1
 C        -0.120988         0.307691        -0.305812
 C         1.330287        -0.004517         0.014845
 C         1.990845         0.640377         1.263256
 C         3.302346         0.478597         0.484708
 C         3.289936        -0.939942        -0.294104
 O         4.432539        -1.558806        -0.842836
 C         1.949301        -1.474127         0.189466
 C         2.625451         0.320272        -0.938735
 O         2.639794         1.156093        -2.023458
 H        -0.783639        -0.531015         0.187398
 H        -0.373291         1.307976        -0.021947
 H        -0.339574         0.320631        -1.392518
 H         1.745096         1.757343         1.265691
 H         1.805803         0.167127         2.243549
 H         4.305274         0.890769         0.622281
 H         3.969365        -1.984271        -1.492210
 H         1.534743        -2.339279        -0.428828
 H         1.939648        -1.780718         1.220600
 H         3.372193         0.731201        -2.607203
