19
Iteration:  2102
 C        -0.157905         0.244737        -0.231110
 C         1.362688         0.027065        -0.031204
 C         2.016972         0.635604         1.280398
 C         3.376136         0.481101         0.642145
 C         3.256208        -0.839322        -0.264494
 O         4.387643        -1.473544        -0.952401
 C         1.921775        -1.465286        -0.067283
 C         2.699036         0.461254        -0.772160
 O         2.602618         0.938788        -2.067833
 H        -0.716300         0.254979         0.812458
 H        -0.334871         1.210833        -0.555984
 H        -0.658915        -0.513351        -0.883759
 H         1.827851         1.746146         1.362461
 H         1.929749         0.002051         2.199898
 H         4.353760         1.077718         0.916147
 H         4.247767        -2.548290        -0.953246
 H         1.471852        -1.865902        -0.958812
 H         1.620641        -2.013544         0.878743
 H         3.453112         0.701673        -2.477604
