19
Iteration:  3464
 C        -0.107956         0.214327        -0.282975
 C         1.319766        -0.032258         0.119496
 C         2.053554         0.703154         1.336607
 C         3.404593         0.518420         0.508446
 C         3.146182        -0.821518        -0.295620
 O         4.183264        -1.479583        -0.886359
 C         1.897442        -1.460195         0.067018
 C         2.646517         0.377243        -0.824874
 O         2.879019         0.839216        -2.117723
 H        -0.731924        -0.082630         0.539747
 H        -0.263052         1.225788        -0.589514
 H        -0.490290        -0.435609        -1.119909
 H         1.789890         1.901829         1.312351
 H         2.143187         0.147419         2.329587
 H         4.413525         0.878073         0.529055
 H         4.484377        -0.981278        -1.784506
 H         1.565681        -1.990924        -0.838188
 H         1.908945        -2.131838         0.990966
 H         2.599182         1.745790        -2.141308
