19
Iteration:  3536charge 0 multiplicity 1
 C        -0.071127         0.289839        -0.235201
 C         1.347606        -0.039877         0.118343
 C         2.119995         0.633283         1.242838
 C         3.381095         0.508594         0.383614
 C         3.268014        -0.882036        -0.372179
 O         4.384724        -1.617259        -0.601066
 C         1.866593        -1.493402         0.002416
 C         2.602251         0.409355        -0.920818
 O         2.578033         1.103724        -2.110085
 H        -0.764787        -0.219974         0.549541
 H        -0.091665         1.422162        -0.375478
 H        -0.419704        -0.200124        -1.301870
 H         1.700033         1.581385         1.228733
 H         1.950172         0.076054         2.195995
 H         4.374767         0.976423         0.513520
 H         4.110737        -2.394740        -1.239204
 H         1.380319        -1.931664        -0.915563
 H         1.840233        -2.118223         0.883750
 H         3.080231         1.946919        -2.086249
