19
Iteration:   715
 C        -0.238787         0.137933         0.004844
 C         1.286295         0.041904         0.065916
 C         2.091708         0.759241         1.161799
 C         3.392633         0.633093         0.286523
 C         3.254998        -0.903345        -0.221119
 O         4.263391        -1.523509        -0.887299
 C         1.891262        -1.462749         0.152410
 C         2.591285         0.317195        -0.900319
 O         2.832206         0.971712        -2.171912
 H        -0.586938        -0.516018         0.712670
 H        -0.669814         1.162103         0.226146
 H        -0.480300        -0.224208        -1.090841
 H         1.901489         1.910700         1.404602
 H         2.117374         0.343566         2.225785
 H         4.337220         1.277692         0.440720
 H         4.963148        -1.674097        -0.394136
 H         1.488738        -2.084198        -0.733194
 H         1.725630        -1.905365         1.117454
 H         3.175001         0.293383        -2.875877
