19
Iteration:  3275
 C        -0.091124         0.346855        -0.213987
 C         1.316315        -0.062236        -0.007835
 C         1.965112         0.719515         1.282139
 C         3.324583         0.469974         0.504034
 C         3.209291        -0.874110        -0.408035
 O         4.309813        -1.521996        -0.815520
 C         1.984754        -1.570226         0.149434
 C         2.591751         0.307717        -0.916259
 O         2.809560         0.951826        -2.107151
 H        -0.592702         0.107682         0.816397
 H        -0.227784         1.435307        -0.445546
 H        -0.663435        -0.089427        -1.088830
 H         1.684293         1.775954         1.211706
 H         1.847997         0.196616         2.197048
 H         4.207152         1.038506         0.660846
 H         5.046582        -0.840774        -1.158790
 H         1.389923        -2.289857        -0.504561
 H         2.043372        -2.065857         1.138384
 H         2.485898         1.820855        -2.047377
