19
Iteration:  1818
 C        -0.141015         0.215371        -0.272967
 C         1.306901        -0.089382        -0.008276
 C         2.036021         0.757079         1.123420
 C         3.321445         0.496495         0.441868
 C         3.305996        -0.879158        -0.292326
 O         4.377546        -1.688542        -0.778402
 C         2.006679        -1.533975         0.154893
 C         2.599722         0.344117        -0.907278
 O         2.677497         1.182330        -1.969589
 H        -0.853995        -0.502233         0.359480
 H        -0.376190         1.168583         0.027563
 H        -0.355169         0.158449        -1.360777
 H         1.720009         1.751397         0.816528
 H         1.900252         0.599697         2.300281
 H         4.262146         1.052458         0.595162
 H         4.383924        -1.719141        -1.800805
 H         1.470697        -2.160856        -0.684281
 H         1.931204        -2.114457         1.168993
 H         2.550103         2.160908        -1.626341
