19
Iteration:   509
 C        -0.229869         0.205625        -0.053761
 C         1.259430         0.030870         0.104406
 C         2.108633         0.818074         1.202048
 C         3.348105         0.539803         0.333535
 C         3.277173        -0.878222        -0.294610
 O         4.330984        -1.494057        -0.964622
 C         1.889170        -1.349252         0.171243
 C         2.597598         0.294541        -0.905250
 O         2.823013         0.880465        -2.115644
 H        -0.687085        -0.525114         0.613106
 H        -0.540538         1.201665         0.396563
 H        -0.641115         0.044917        -1.104043
 H         1.857137         1.831503         1.393175
 H         2.213339         0.177909         2.123420
 H         4.249859         1.055806         0.314116
 H         4.853098        -2.115999        -0.207038
 H         1.524432        -2.172282        -0.581268
 H         1.606165        -1.753727         1.177320
 H         2.837486         0.173366        -2.847859
