19
Iteration:  4554charge 0 multiplicity 1
 C        -0.103274         0.239954        -0.171693
 C         1.332745         0.000615         0.021148
 C         2.049143         0.619947         1.205758
 C         3.371552         0.383774         0.483960
 C         3.220499        -0.876996        -0.294138
 O         4.392540        -1.485777        -0.682526
 C         1.876925        -1.438809         0.009882
 C         2.569338         0.430406        -0.962221
 O         2.714809         1.125683        -2.151129
 H        -0.610118        -0.614301         0.199155
 H        -0.503143         1.225305         0.248492
 H        -0.328951         0.198686        -1.244939
 H         1.841008         1.728054         1.272627
 H         1.850631         0.419999         2.344633
 H         4.368485         0.628141         0.822004
 H         4.565728        -2.420094        -0.340748
 H         1.363607        -2.115099        -0.743696
 H         1.916468        -2.059350         0.947283
 H         2.754880         0.508010        -2.985108
