19
Iteration:   531charge 0 multiplicity 1
 C        -0.162806         0.221239         0.015104
 C         1.309264         0.030589         0.079080
 C         2.102622         0.786432         1.147497
 C         3.385025         0.527363         0.455268
 C         3.190511        -0.853614        -0.311248
 O         4.253083        -1.438114        -0.921699
 C         1.918708        -1.491543         0.185394
 C         2.590870         0.418497        -0.925130
 O         2.820106         0.850700        -2.245779
 H        -0.652886        -0.548219         0.626329
 H        -0.528284         1.192204         0.503390
 H        -0.593544         0.113333        -1.034600
 H         1.679390         1.716419         0.997739
 H         1.863475         0.469615         2.198517
 H         4.384415         0.735648         0.698692
 H         4.665818        -2.087564        -0.445189
 H         1.422025        -2.359198        -0.522069
 H         1.860481        -1.807703         1.274985
 H         3.454181         0.345781        -2.688774
