19
Iteration:  3077charge 0 multiplicity 1
 C        -0.132934         0.390896        -0.164751
 C         1.329872        -0.114182        -0.043509
 C         1.998039         0.565459         1.174949
 C         3.331646         0.499176         0.460902
 C         3.269518        -0.847852        -0.298141
 O         4.391869        -1.474383        -0.740918
 C         1.917214        -1.501656         0.088134
 C         2.629244         0.374588        -0.870105
 O         2.725567         0.959236        -2.143576
 H        -0.730688         0.331823         0.758920
 H        -0.101541         1.493289        -0.336025
 H        -0.672689        -0.247731        -0.850403
 H         1.582336         1.588014         1.175096
 H         1.889948         0.198677         2.302244
 H         4.372325         0.745804         0.813059
 H         4.221876        -1.980192        -1.661573
 H         1.594724        -2.271246        -0.648842
 H         1.820854        -1.923449         1.085526
 H         2.775438         1.935767        -1.964119
