19
Iteration:   951charge 0 multiplicity 1
 C        -0.028097         0.327879        -0.184092
 C         1.383800        -0.025610         0.119571
 C         2.077209         0.734986         1.263080
 C         3.374070         0.497472         0.388975
 C         3.208152        -0.865559        -0.255044
 O         4.360438        -1.435365        -0.943005
 C         1.927873        -1.525172         0.200455
 C         2.507382         0.306620        -0.858326
 O         2.678293         0.829126        -2.189429
 H        -0.813256         0.067331         0.602549
 H        -0.227075         1.337346        -0.374945
 H        -0.287597        -0.117343        -1.079734
 H         1.537528         1.675133         1.278780
 H         1.859666         0.299468         2.344479
 H         4.308610         1.085567         0.668448
 H         5.100004        -1.076716        -0.656311
 H         1.578608        -2.063890        -0.633247
 H         1.769242        -2.015436         1.156735
 H         1.891735         1.122033        -2.595451
