19
Iteration:  2189
 C        -0.086036         0.298409        -0.242345
 C         1.351156        -0.082531         0.057132
 C         2.045344         0.636195         1.240156
 C         3.337387         0.547035         0.479488
 C         3.290214        -0.867630        -0.363241
 O         4.329446        -1.660600        -0.741148
 C         1.922887        -1.578345        -0.048899
 C         2.620068         0.403626        -0.851003
 O         2.670483         1.168807        -2.025393
 H        -0.716107        -0.366885         0.392962
 H        -0.322638         1.267738        -0.035513
 H        -0.347562         0.114347        -1.290976
 H         1.613334         1.673791         1.021230
 H         2.006429         0.349966         2.303484
 H         4.439866         0.873300         0.465118
 H         5.194977        -1.250144        -0.576971
 H         1.527586        -2.008678        -0.948694
 H         1.711317        -2.181947         0.877723
 H         1.861183         1.143773        -2.498892
