19
Iteration:  4871
 C        -0.206165         0.333731        -0.208980
 C         1.229153        -0.048158         0.106831
 C         2.008206         0.679665         1.323162
 C         3.335818         0.482933         0.484552
 C         3.221274        -0.859164        -0.363666
 O         4.389658        -1.491534        -0.742205
 C         1.884332        -1.526263        -0.050332
 C         2.636971         0.357536        -0.824762
 O         2.847161         0.920482        -2.153595
 H        -0.758172         0.274352         0.689575
 H        -0.187545         1.304948        -0.630429
 H        -0.507393        -0.283575        -0.990400
 H         1.700562         1.789053         1.326942
 H         2.047490         0.054753         2.233325
 H         4.358745         0.802059         0.679493
 H         4.366010        -1.380407        -1.759536
 H         1.440218        -2.100957        -0.870231
 H         1.873622        -2.163206         0.819709
 H         3.300600         1.819434        -2.067004
