19
Iteration:  2619charge 0 multiplicity 1
 C        -0.137257         0.304714        -0.301618
 C         1.364175        -0.001996         0.000504
 C         1.986766         0.628601         1.277572
 C         3.324042         0.477024         0.483415
 C         3.279718        -0.942232        -0.290068
 O         4.434264        -1.546111        -0.828537
 C         1.937976        -1.460659         0.176864
 C         2.604530         0.294455        -0.932038
 O         2.649114         1.161132        -2.032056
 H        -0.778883        -0.438669         0.142877
 H        -0.381501         1.254627        -0.007213
 H        -0.317010         0.317203        -1.406924
 H         1.735449         1.784524         1.261468
 H         1.815786         0.085295         2.277591
 H         4.265094         0.899794         0.601545
 H         3.962085        -2.020818        -1.625414
 H         1.535491        -2.386657        -0.325153
 H         1.960433        -1.675253         1.234814
 H         3.289481         0.777196        -2.659255
