19
Iteration:  2833
 C        -0.110323         0.322625        -0.149892
 C         1.330133         0.008926         0.029858
 C         1.982871         0.693540         1.179803
 C         3.261402         0.358131         0.511478
 C         3.193360        -0.949992        -0.348873
 O         4.447452        -1.452150        -0.784914
 C         1.897424        -1.565288         0.155226
 C         2.659020         0.361331        -0.938642
 O         2.760626         0.991205        -2.147619
 H        -0.580445        -0.463819         0.410757
 H        -0.460576         1.347411         0.206177
 H        -0.342417         0.304611        -1.205588
 H         1.803511         1.801414         1.007800
 H         1.640441         0.322438         2.221265
 H         4.307086         0.720478         0.787220
 H         4.403934        -1.209544        -1.840295
 H         1.219949        -2.140723        -0.430082
 H         2.014807        -2.001132         1.185480
 H         2.841233         1.963605        -1.996373
