19
Iteration:  4060charge 0 multiplicity 1
 C        -0.150317         0.362240        -0.129345
 C         1.303860        -0.079977        -0.030998
 C         2.082101         0.591162         1.186212
 C         3.336986         0.503025         0.391810
 C         3.221917        -0.844400        -0.271170
 O         4.422631        -1.406517        -0.695828
 C         1.856803        -1.517580        -0.018403
 C         2.586060         0.402379        -0.838272
 O         2.768848         0.843321        -2.110773
 H        -0.690986        -0.012158         0.727467
 H        -0.237228         1.414710        -0.186220
 H        -0.726312        -0.013293        -0.997482
 H         1.678220         1.665956         1.475120
 H         1.942571         0.228005         2.282729
 H         4.351173         0.931057         0.547462
 H         4.255324        -1.835533        -1.631238
 H         1.582688        -2.048955        -0.956193
 H         1.619167        -2.041058         0.912161
 H         3.056081         1.743907        -2.049433
