19
Iteration:   535
 C        -0.139069         0.235012         0.003771
 C         1.313803         0.004436         0.098455
 C         2.090722         0.819979         1.163773
 C         3.358268         0.508921         0.453836
 C         3.172076        -0.843244        -0.314631
 O         4.226095        -1.423395        -0.922253
 C         1.941110        -1.495758         0.140215
 C         2.606305         0.393510        -0.927669
 O         2.803790         0.847587        -2.248326
 H        -0.600084        -0.592850         0.676771
 H        -0.456770         1.155644         0.462783
 H        -0.520190         0.125729        -0.955066
 H         1.618232         1.889698         1.001863
 H         1.949702         0.422429         2.224755
 H         4.441389         0.666449         0.761007
 H         4.692122        -2.153426        -0.319058
 H         1.583438        -2.273453        -0.387626
 H         1.829432        -1.781333         1.190363
 H         3.597693         0.319184        -2.661339
