19
Iteration:  1313
 C        -0.085887         0.154417        -0.206941
 C         1.330803        -0.018968         0.135266
 C         2.084379         0.700651         1.299770
 C         3.309099         0.587017         0.439524
 C         3.257461        -0.760572        -0.243013
 O         4.321320        -1.402387        -0.954420
 C         1.960823        -1.431115         0.054284
 C         2.541176         0.408126        -0.804556
 O         2.685499         0.700245        -2.197073
 H        -0.681118        -0.342620         0.565016
 H        -0.375830         1.163327        -0.342005
 H        -0.218758        -0.469094        -1.048492
 H         1.820814         1.716914         1.331147
 H         2.266625         0.345297         2.374779
 H         4.350937         1.047067         0.728721
 H         5.117083        -1.318663        -0.429218
 H         1.630492        -1.992291        -0.829127
 H         1.750638        -2.122765         0.952071
 H         2.189115         1.557217        -2.285663
