19
Iteration:  2716
 C        -0.025858         0.407559        -0.170581
 C         1.340975        -0.138003         0.098939
 C         1.989111         0.649996         1.169410
 C         3.304842         0.566558         0.419083
 C         3.256016        -0.876554        -0.355933
 O         4.453545        -1.532558        -0.635917
 C         1.887093        -1.650166         0.006531
 C         2.501903         0.320854        -0.911733
 O         2.677604         1.062193        -2.088721
 H        -0.618310         0.344967         0.688198
 H         0.072397         1.436465        -0.524503
 H        -0.506209        -0.111190        -1.066972
 H         1.607899         1.677918         1.266067
 H         1.933475         0.143273         2.161147
 H         4.334750         0.899056         0.298386
 H         4.421711        -1.612378        -1.712880
 H         1.529267        -2.259816        -0.851543
 H         1.930544        -2.305550         0.912712
 H         2.884157         1.974157        -1.940723
