19
Iteration:  1988
 C        -0.085987         0.099820        -0.343036
 C         1.352263        -0.032756         0.092487
 C         2.062118         0.679042         1.321630
 C         3.336253         0.564331         0.457366
 C         3.271716        -0.838821        -0.357768
 O         4.305261        -1.661888        -0.784827
 C         1.976208        -1.443323         0.017081
 C         2.607174         0.450591        -0.834095
 O         2.674915         1.101735        -2.045188
 H        -0.663937        -0.434248         0.301525
 H        -0.515653         1.173316        -0.174237
 H        -0.195948        -0.281558        -1.330161
 H         1.813147         1.797210         1.249144
 H         2.097440         0.189556         2.343242
 H         4.332578         1.083196         0.483654
 H         3.914106        -2.383040        -1.119519
 H         1.644584        -2.020348        -0.915469
 H         1.854622        -2.001480         0.997677
 H         2.539529         2.122535        -2.100439
