19
Iteration:  2616
 C        -0.146872         0.292048        -0.307518
 C         1.399710        -0.003080        -0.019208
 C         1.985141         0.621935         1.292327
 C         3.346900         0.464273         0.475048
 C         3.263768        -0.931460        -0.288554
 O         4.428305        -1.533619        -0.814069
 C         1.921266        -1.449776         0.161081
 C         2.577147         0.266047        -0.911164
 O         2.661878         1.165836        -2.041540
 H        -0.825180        -0.360806         0.119907
 H        -0.425545         1.316663         0.076704
 H        -0.279852         0.293263        -1.397560
 H         1.742031         1.698778         1.293745
 H         1.843573         0.037006         2.248107
 H         4.312282         0.965954         0.596453
 H         4.060268        -2.019900        -1.698988
 H         1.531156        -2.392876        -0.201307
 H         1.984866        -1.571715         1.286746
 H         3.188407         0.833602        -2.758241
