19
Iteration:  4927
 C        -0.190163         0.254893        -0.214237
 C         1.303382         0.059863         0.011702
 C         2.092269         0.651475         1.240877
 C         3.367690         0.465829         0.436784
 C         3.240786        -0.935120        -0.372536
 O         4.431780        -1.584886        -0.597318
 C         1.862199        -1.515064        -0.023123
 C         2.599252         0.436649        -0.890829
 O         2.765305         1.072183        -2.156824
 H        -0.673060        -0.374792         0.420425
 H        -0.489269         1.240958         0.107970
 H        -0.637798         0.006297        -1.138234
 H         1.976188         1.768592         1.397971
 H         1.871472         0.354461         2.278935
 H         4.451517         0.657032         0.683414
 H         4.099551        -2.201442        -1.217196
 H         1.387276        -2.026240        -0.852958
 H         1.821906        -2.135776         0.851977
 H         2.481060         1.922085        -2.034779
