19
Iteration:  1872charge 0 multiplicity 1
 C        -0.080923         0.237683        -0.338316
 C         1.295158         0.018934         0.119065
 C         2.122190         0.521082         1.362137
 C         3.427830         0.455135         0.433902
 C         3.208476        -0.832883        -0.336110
 O         4.401619        -1.423386        -0.668675
 C         1.879848        -1.466367        -0.006212
 C         2.612648         0.439563        -0.868494
 O         2.542420         1.010516        -2.162530
 H        -0.980063        -0.218573         0.307116
 H        -0.246846         1.239671        -0.432606
 H        -0.097444        -0.286441        -1.315016
 H         1.837136         1.480817         1.695450
 H         2.081777        -0.225709         2.180989
 H         4.428581         0.744601         0.669186
 H         4.338450        -2.167250        -1.328487
 H         1.311366        -1.980324        -0.778824
 H         1.923140        -1.878998         1.018993
 H         3.447633         1.459433        -2.409142
