19
Iteration:  2377
 C        -0.065827         0.315251        -0.199047
 C         1.380410        -0.083661        -0.081997
 C         1.995841         0.606112         1.231336
 C         3.339475         0.337516         0.489222
 C         3.176712        -0.884850        -0.385903
 O         4.462435        -1.451518        -0.690568
 C         1.883892        -1.536238         0.004985
 C         2.633151         0.442819        -0.878155
 O         2.679414         1.089717        -2.067611
 H        -0.720593        -0.186633         0.641326
 H        -0.190127         1.457127        -0.131757
 H        -0.529889        -0.015267        -1.185532
 H         1.830349         1.696077         1.134132
 H         1.825139         0.208888         2.204565
 H         4.281497         0.844576         0.765052
 H         4.413213        -2.240243        -1.123413
 H         1.432146        -2.295144        -0.666217
 H         1.849520        -1.886839         1.044355
 H         2.161232         1.873636        -2.023212
