19
Iteration:  2960charge 0 multiplicity 1
 C        -0.065151         0.279578        -0.330408
 C         1.344154        -0.063381         0.058375
 C         2.090355         0.770103         1.237248
 C         3.323471         0.455085         0.316536
 C         3.191751        -0.883594        -0.336516
 O         4.354341        -1.555853        -0.694806
 C         1.984032        -1.569685         0.127436
 C         2.459127         0.293753        -0.894513
 O         2.693811         1.051586        -2.005460
 H        -0.830069        -0.003920         0.528340
 H        -0.033408         1.376649        -0.279034
 H        -0.381926        -0.231950        -1.348479
 H         1.846584         1.837475         1.293805
 H         2.213989         0.458656         2.203376
 H         4.414785         0.733756         0.309244
 H         4.580934        -1.214753        -1.685943
 H         1.445455        -2.157632        -0.671608
 H         1.989019        -2.107775         1.089518
 H         2.784051         2.015279        -1.671995
