19
Iteration:  1423charge 0 multiplicity 1
 C        -0.137138        -0.006473        -0.161043
 C         1.333995        -0.002115         0.008107
 C         2.126414         0.703267         1.156260
 C         3.409638         0.642020         0.308352
 C         3.275241        -0.841722        -0.329355
 O         4.342351        -1.674962        -0.701091
 C         1.965920        -1.423820         0.121880
 C         2.613995         0.373853        -0.939538
 O         2.493533         1.125253        -2.117089
 H        -0.675083        -0.545179         0.615099
 H        -0.545578         0.963412        -0.266601
 H        -0.303050        -0.361290        -1.150698
 H         1.976670         1.719509         1.339620
 H         2.161903         0.213432         2.203117
 H         4.284043         1.049729         0.681714
 H         5.132302        -1.519278        -0.175040
 H         1.521273        -2.039283        -0.664270
 H         1.822093        -1.925304         1.121957
 H         2.922193         1.927226        -1.905173
