19
Iteration:  4840charge 0 multiplicity 1
 C        -0.091229         0.227896        -0.396021
 C         1.349716         0.069408        -0.021501
 C         2.056233         0.656084         1.321191
 C         3.410774         0.440400         0.582772
 C         3.217340        -0.867304        -0.211512
 O         4.256912        -1.485965        -0.865984
 C         1.818989        -1.472930         0.022295
 C         2.675945         0.408824        -0.799286
 O         2.758364         0.868782        -2.064406
 H        -0.583993         0.225376         0.557641
 H        -0.375166         1.250652        -0.894340
 H        -0.322422        -0.708562        -1.059438
 H         1.834047         1.703114         1.573907
 H         2.023746         0.112971         2.251063
 H         4.380814         0.928526         0.740003
 H         4.441582        -1.113538        -1.744202
 H         1.516167        -2.073784        -0.782727
 H         1.778965        -1.857271         1.007516
 H         2.546418         1.879572        -2.039883
