19
Iteration:  4748charge 0 multiplicity 1
 C        -0.093280         0.264089        -0.219776
 C         1.361958         0.092908         0.057937
 C         2.057711         0.664992         1.286662
 C         3.325574         0.415061         0.416079
 C         3.216089        -0.948708        -0.437234
 O         4.453480        -1.587985        -0.522640
 C         1.829354        -1.465382        -0.080065
 C         2.637686         0.404390        -0.905013
 O         2.594326         1.087158        -2.153060
 H        -0.602613        -0.525804         0.411797
 H        -0.430190         1.159619         0.294737
 H        -0.318327         0.357386        -1.242209
 H         1.727146         1.805462         1.482116
 H         2.101326         0.066350         2.302375
 H         4.348651         0.768565         0.659721
 H         4.338400        -2.119057        -1.275567
 H         1.500987        -1.805028        -1.068350
 H         1.838885        -2.200999         0.692186
 H         3.443008         1.411015        -2.169703
