19
Iteration:  2294charge 0 multiplicity 1
 C        -0.178848         0.246187        -0.303755
 C         1.311637        -0.017901         0.037773
 C         1.981623         0.680016         1.280864
 C         3.422298         0.394867         0.556302
 C         3.277738        -0.872522        -0.329029
 O         4.404403        -1.480248        -0.931230
 C         1.885413        -1.519457         0.071632
 C         2.587350         0.326874        -0.816056
 O         2.717977         0.986216        -2.053221
 H        -0.734790         0.247371         0.616569
 H        -0.389461         1.345930        -0.826463
 H        -0.645161        -0.504791        -0.956076
 H         1.740092         1.770152         1.134739
 H         1.580656         0.479827         2.375590
 H         4.447373         0.866336         0.811404
 H         4.938806        -0.763176        -0.997555
 H         1.357021        -2.157762        -0.688458
 H         1.877794        -2.117789         0.994287
 H         3.161773         1.899076        -1.993916
