19
Iteration:  4746
 C        -0.097256         0.265400        -0.212927
 C         1.361325         0.086892         0.067855
 C         2.070094         0.669029         1.273463
 C         3.318229         0.436189         0.406460
 C         3.219755        -0.939823        -0.434458
 O         4.451948        -1.591579        -0.509215
 C         1.828732        -1.467414        -0.102291
 C         2.640073         0.405167        -0.910739
 O         2.592200         1.085609        -2.141387
 H        -0.594318        -0.495985         0.374645
 H        -0.391765         1.104612         0.304384
 H        -0.308420         0.287409        -1.229835
 H         1.748856         1.749619         1.507530
 H         2.085522         0.069544         2.295993
 H         4.335038         0.727830         0.707663
 H         4.244594        -2.126742        -1.337989
 H         1.459245        -1.830618        -1.079019
 H         1.850818        -2.211668         0.717581
 H         3.505969         1.390417        -2.200152
