19
Iteration:  2086
 C        -0.091276         0.323156        -0.204949
 C         1.339098        -0.008117         0.011884
 C         1.998915         0.517056         1.255755
 C         3.363645         0.493883         0.498965
 C         3.291719        -0.801323        -0.281384
 O         4.384102        -1.467150        -0.814563
 C         1.949697        -1.451081         0.001934
 C         2.625868         0.409781        -0.812629
 O         2.621006         1.016015        -2.102984
 H        -0.621908         0.140843         0.668482
 H        -0.257780         1.489706        -0.380580
 H        -0.502130        -0.322207        -0.953496
 H         1.603244         1.496458         1.489835
 H         1.798304        -0.053476         2.154163
 H         4.283901         0.749746         0.875915
 H         3.943035        -2.159997        -1.371477
 H         1.667066        -2.123075        -0.867754
 H         1.805385        -2.166212         0.838149
 H         3.207033         0.409584        -2.709621
