19
Iteration:  4953
 C        -0.015840         0.165381        -0.328638
 C         1.363713         0.036296         0.074709
 C         2.139928         0.649265         1.259294
 C         3.391584         0.548463         0.445291
 C         3.233609        -0.900077        -0.374928
 O         4.273802        -1.646125        -0.611970
 C         1.845694        -1.400587        -0.009635
 C         2.634385         0.387932        -0.858025
 O         2.632021         1.025356        -2.075630
 H        -0.825651        -0.502397         0.097176
 H        -0.425458         1.227860        -0.122858
 H        -0.105604        -0.107842        -1.475880
 H         1.859509         1.673261         1.264216
 H         2.100634         0.449169         2.313878
 H         4.318818         1.054958         0.640055
 H         4.217769        -1.837187        -1.553939
 H         1.486568        -1.759835        -0.980693
 H         1.782224        -2.051658         0.875730
 H         2.718100         1.968162        -1.847919
