19
Iteration:  3062
 C        -0.135066         0.382980        -0.162345
 C         1.301527        -0.023114        -0.038831
 C         1.962267         0.611808         1.186493
 C         3.314680         0.371488         0.477905
 C         3.211651        -0.883912        -0.347568
 O         4.455105        -1.377203        -0.799935
 C         1.924964        -1.500879         0.167893
 C         2.522829         0.324278        -0.903431
 O         2.850765         0.913941        -2.099377
 H        -0.562880         0.045033         0.939220
 H        -0.118667         1.533421        -0.198195
 H        -0.745830         0.111785        -1.038731
 H         1.839884         1.701887         1.297942
 H         1.725934         0.018834         1.920942
 H         4.213731         0.904765         0.609480
 H         4.250050        -1.910791        -1.619928
 H         1.518838        -2.246876        -0.508459
 H         1.974018        -1.891380         1.251725
 H         2.523257         1.778796        -2.133780
