19
Iteration:   964
 C        -0.068848         0.354821        -0.256562
 C         1.331154         0.000387         0.082835
 C         2.081279         0.644500         1.264860
 C         3.300759         0.572281         0.406734
 C         3.302180        -0.872286        -0.251766
 O         4.361501        -1.423198        -0.983395
 C         1.905744        -1.456004         0.213283
 C         2.584556         0.287753        -0.868347
 O         2.635153         0.785572        -2.114946
 H        -0.710185         0.079831         0.575123
 H        -0.070680         1.424612        -0.468070
 H        -0.440039        -0.274093        -1.091412
 H         2.058606         1.791544         1.374269
 H         2.129612         0.144935         2.261148
 H         4.304124         0.902912         0.415036
 H         5.268059        -1.170766        -0.380940
 H         1.525610        -2.176854        -0.495478
 H         1.812261        -1.949821         1.245095
 H         1.669611         1.076173        -2.268662
