19
Iteration:  4133
 C        -0.137887         0.200193        -0.319960
 C         1.311347        -0.003012         0.041660
 C         2.096919         0.681632         1.295151
 C         3.363622         0.507253         0.431415
 C         3.269305        -0.853155        -0.213366
 O         4.242168        -1.532372        -0.849713
 C         1.876114        -1.458091         0.144111
 C         2.573535         0.337177        -0.837410
 O         2.803555         0.917756        -2.103061
 H        -0.838283        -0.423991         0.275002
 H        -0.408543         1.334945        -0.181692
 H        -0.280153         0.144843        -1.434261
 H         1.755089         1.608817         1.298177
 H         2.121285         0.472154         2.283994
 H         4.352446         1.002542         0.421989
 H         4.678272        -1.090375        -1.705949
 H         1.617586        -2.124991        -0.669198
 H         1.829583        -1.919017         1.138301
 H         2.940229         1.901726        -1.981822
