19
Iteration:  3120
 C        -0.081392         0.154801        -0.370329
 C         1.321860         0.047853         0.087952
 C         2.245770         0.615311         1.252566
 C         3.448223         0.451669         0.419264
 C         3.181809        -0.872482        -0.368383
 O         4.369970        -1.628542        -0.568497
 C         1.851785        -1.396795        -0.021342
 C         2.605404         0.422436        -0.869630
 O         2.514957         1.072735        -2.064556
 H        -0.926937         0.023093         0.462796
 H        -0.304048         1.149612        -0.948553
 H        -0.327986        -0.742786        -0.966657
 H         1.965004         1.654771         1.411443
 H         2.146603         0.294533         2.215272
 H         4.481838         0.902232         0.555428
 H         4.526791        -1.532389        -1.505755
 H         1.412930        -1.999853        -0.850949
 H         1.691555        -1.863936         0.972692
 H         3.026565         1.959252        -2.072698
