19
Iteration:   524charge 0 multiplicity 1
 C        -0.233297         0.211168         0.015022
 C         1.320873         0.041812         0.031240
 C         2.095320         0.710537         1.139039
 C         3.416725         0.542567         0.415627
 C         3.206932        -0.847955        -0.289601
 O         4.316305        -1.462984        -0.950984
 C         1.841685        -1.474072         0.253121
 C         2.597877         0.413850        -0.917337
 O         2.825124         0.877059        -2.214148
 H        -0.791355        -0.623523         0.594081
 H        -0.541843         1.173096         0.383511
 H        -0.622128         0.158143        -0.947535
 H         1.874167         1.897012         1.064919
 H         1.827924         0.471092         2.215564
 H         4.426512         1.059312         0.574798
 H         4.698969        -2.125182        -0.414459
 H         1.374373        -2.008078        -0.447052
 H         1.957822        -1.915084         1.242943
 H         3.316999         0.149141        -2.708667
