19
Iteration:  2167charge 0 multiplicity 1
 C        -0.161113         0.332449        -0.260841
 C         1.309004        -0.003113         0.016076
 C         1.999346         0.568442         1.240527
 C         3.270885         0.414715         0.433811
 C         3.298155        -0.928452        -0.372648
 O         4.376399        -1.597206        -0.858921
 C         1.987411        -1.479445         0.140296
 C         2.563719         0.358131        -0.875592
 O         2.728700         1.177285        -1.984987
 H        -0.894693         0.012582         0.525671
 H        -0.189522         1.367429        -0.239702
 H        -0.503347         0.075025        -1.269772
 H         1.774540         1.667453         1.391923
 H         1.953573        -0.109829         2.115828
 H         4.279800         0.983349         0.661560
 H         5.201520        -1.055881        -0.690200
 H         1.515274        -2.195033        -0.507137
 H         2.024242        -1.801647         1.230071
 H         2.682995         0.651479        -2.880555
