19
Iteration:  1032charge 0 multiplicity 1
 C        -0.166694         0.191453        -0.182528
 C         1.330862        -0.062846         0.057698
 C         2.155281         0.758642         1.152803
 C         3.392843         0.598660         0.278394
 C         3.283616        -0.920814        -0.270546
 O         4.452085        -1.580984        -0.723137
 C         1.949124        -1.455204         0.116056
 C         2.586102         0.409622        -0.911478
 O         2.450476         1.039175        -2.096073
 H        -0.513772        -0.321554         0.638352
 H        -0.620078         1.217221        -0.254333
 H        -0.514345        -0.520922        -1.011572
 H         1.914783         1.907340         1.174393
 H         2.178106         0.296446         2.103844
 H         4.358945         1.015323         0.494393
 H         4.394788        -2.431532        -0.522048
 H         1.484571        -2.229887        -0.552558
 H         1.959353        -1.952362         1.142088
 H         3.274409         1.489742        -2.298948
