19
Iteration:  4414
 C        -0.051764         0.375072        -0.197535
 C         1.377730        -0.103700        -0.033850
 C         2.061696         0.574229         1.289550
 C         3.318659         0.490045         0.438371
 C         3.283309        -0.889719        -0.399407
 O         4.449638        -1.550487        -0.555357
 C         1.911576        -1.487505        -0.030046
 C         2.578970         0.400252        -0.937098
 O         2.518619         1.106387        -2.152389
 H        -0.638299         0.450088         0.819009
 H        -0.254976         1.283394        -0.835142
 H        -0.609997        -0.455837        -0.753406
 H         1.786660         1.552962         1.491271
 H         2.059957         0.245588         2.262155
 H         4.333635         0.821904         0.632683
 H         4.241886        -2.441423        -1.047283
 H         1.449358        -2.106017        -0.762058
 H         1.740463        -2.031456         0.931889
 H         3.372482         1.516221        -2.279140
