19
Iteration:  1114charge 0 multiplicity 1
 C        -0.096230         0.091504        -0.163609
 C         1.351191        -0.013808         0.048352
 C         2.110106         0.747780         1.260322
 C         3.336833         0.565565         0.380292
 C         3.245183        -0.814303        -0.280654
 O         4.403758        -1.485306        -0.754645
 C         1.954905        -1.409958         0.173140
 C         2.549770         0.409107        -0.879239
 O         2.651741         0.849905        -2.206567
 H        -0.779062        -0.418224         0.660209
 H        -0.364916         1.116236        -0.304317
 H        -0.276205        -0.397358        -1.084125
 H         2.061641         1.746657         1.413733
 H         2.008474         0.211276         2.236738
 H         4.287430         0.933804         0.478985
 H         4.447555        -1.371883        -1.628003
 H         1.494582        -1.863342        -0.744245
 H         1.750321        -1.968286         1.117030
 H         1.805156         1.294776        -2.531796
