19
Iteration:  3566charge 0 multiplicity 1
 C        -0.147974         0.294442        -0.232373
 C         1.362040         0.014280         0.031964
 C         2.256531         0.608886         1.208887
 C         3.434598         0.461706         0.323060
 C         3.231065        -0.902152        -0.351332
 O         4.423734        -1.623164        -0.444752
 C         1.824156        -1.523616        -0.076952
 C         2.599711         0.439076        -0.936299
 O         2.532746         1.128884        -2.099184
 H        -0.779047        -0.321183         0.334671
 H        -0.462903         1.326264        -0.070738
 H        -0.527181        -0.043523        -1.239385
 H         1.840054         1.579451         1.675571
 H         2.030694         0.025987         2.154033
 H         4.453425         0.930599         0.362669
 H         4.433748        -2.258830        -1.232833
 H         1.401363        -2.009405        -0.971657
 H         1.723410        -2.131724         0.865705
 H         2.601841         2.129774        -2.075588
