19
Iteration:  3747
 C        -0.163373         0.286191        -0.263579
 C         1.317420         0.030631        -0.002770
 C         2.137662         0.579752         1.286554
 C         3.432066         0.431683         0.365607
 C         3.212019        -0.889892        -0.459728
 O         4.442421        -1.551395        -0.533996
 C         1.892284        -1.424176         0.036843
 C         2.576343         0.378111        -0.895527
 O         2.571656         1.084521        -2.115916
 H        -0.660235        -0.369974         0.366828
 H        -0.456401         1.394007        -0.161088
 H        -0.542728        -0.131731        -1.181380
 H         1.983002         1.689737         1.446418
 H         2.098729        -0.068057         2.212010
 H         4.511998         0.709531         0.396269
 H         4.481965        -2.467182        -1.061765
 H         1.460307        -1.904107        -0.823224
 H         1.751368        -1.920179         0.981802
 H         3.028556         1.864182        -1.888141
