19
Iteration:   625
 C        -0.051993         0.374413        -0.348012
 C         1.380275        -0.075777         0.150382
 C         2.127892         0.756466         1.205323
 C         3.396061         0.565943         0.335767
 C         3.252466        -0.968132        -0.361730
 O         4.421941        -1.560830        -0.817857
 C         1.963498        -1.512556         0.221074
 C         2.572286         0.265542        -0.876687
 O         2.439659         1.053731        -2.052128
 H        -0.710271         0.554014         0.502802
 H        -0.036068         1.384880        -0.758507
 H        -0.626737        -0.263212        -1.100252
 H         1.790765         1.897706         1.294823
 H         2.224796         0.312978         2.238403
 H         4.341581         1.006654         0.411916
 H         4.866792        -1.772692         0.011420
 H         1.441643        -2.191017        -0.448045
 H         1.902906        -1.974199         1.236632
 H         2.068503         0.317547        -2.691054
