19
Iteration:  1874charge 0 multiplicity 1
 C        -0.077079         0.244513        -0.320130
 C         1.306113         0.035355         0.114796
 C         2.123564         0.503107         1.348344
 C         3.403367         0.470479         0.448015
 C         3.211551        -0.824701        -0.332451
 O         4.407690        -1.434155        -0.662557
 C         1.894967        -1.458078        -0.019606
 C         2.617922         0.444840        -0.861108
 O         2.539946         0.999046        -2.162596
 H        -0.946183        -0.207433         0.310471
 H        -0.245179         1.262000        -0.499036
 H        -0.098292        -0.312654        -1.316552
 H         1.799457         1.476391         1.704432
 H         2.058479        -0.257197         2.255874
 H         4.354107         0.775369         0.592354
 H         4.281032        -2.203857        -1.446415
 H         1.293457        -2.000708        -0.855930
 H         1.908714        -1.917210         1.044297
 H         3.400167         1.400665        -2.419556
