19
Iteration:  3371
 C        -0.148508         0.360744        -0.274277
 C         1.324772         0.006709         0.049102
 C         2.108893         0.626189         1.179642
 C         3.309445         0.441006         0.412546
 C         3.229957        -0.914762        -0.382888
 O         4.466969        -1.513571        -0.699378
 C         1.926024        -1.477341         0.129621
 C         2.591540         0.308477        -0.950105
 O         2.661099         1.045445        -2.062911
 H        -0.734755        -0.297728         0.386423
 H        -0.492584         1.396621        -0.097291
 H        -0.548548         0.238707        -1.287703
 H         1.890365         1.791057         1.477865
 H         1.987580        -0.089122         2.128737
 H         4.305750         0.699818         0.607292
 H         4.258995        -2.346508        -1.012829
 H         1.447872        -2.124599        -0.646853
 H         1.907962        -1.937958         1.132521
 H         2.566831         1.977667        -1.763452
