19
Iteration:  1776
 C        -0.115662         0.086129        -0.245994
 C         1.344514         0.075943         0.097146
 C         2.124395         0.613305         1.330725
 C         3.336146         0.510698         0.435565
 C         3.204711        -0.819516        -0.376554
 O         4.274176        -1.623875        -0.750701
 C         1.875571        -1.404877        -0.018629
 C         2.576661         0.448012        -0.867443
 O         2.779996         1.014948        -2.147790
 H        -0.655432        -0.419573         0.589134
 H        -0.623282         1.012594        -0.341955
 H        -0.214353        -0.607036        -1.129669
 H         1.970548         1.670575         1.458430
 H         2.152149        -0.125011         2.206799
 H         4.214441         0.904924         0.764359
 H         5.086333        -0.927866        -0.737364
 H         1.400717        -1.986965        -0.880189
 H         1.858916        -1.829342         1.030181
 H         2.522229         1.959933        -2.151075
