19
Iteration:  4043
 C        -0.110994         0.359137        -0.179741
 C         1.345181        -0.035488         0.073834
 C         2.027344         0.616820         1.281543
 C         3.279596         0.487863         0.484375
 C         3.224710        -0.926102        -0.382444
 O         4.472425        -1.470479        -0.646997
 C         1.894923        -1.541213         0.066623
 C         2.576586         0.345291        -0.965096
 O         2.714608         0.984554        -2.230850
 H        -0.725165         0.363721         0.804716
 H        -0.409201         1.481907        -0.440819
 H        -0.472044        -0.101672        -1.119932
 H         1.768175         1.602185         1.529076
 H         1.875942        -0.008485         2.146856
 H         4.296582         0.866576         0.654645
 H         4.334099        -1.839940        -1.641059
 H         1.365824        -2.056473        -0.750558
 H         1.880492        -2.085283         1.048779
 H         2.987363         1.900762        -2.040063
