19
Iteration:  2567
 C        -0.103272         0.211129        -0.269417
 C         1.384842        -0.056726         0.083354
 C         2.093451         0.744849         1.300188
 C         3.361327         0.478517         0.466499
 C         3.221993        -0.860519        -0.369839
 O         4.431214        -1.543393        -0.626893
 C         1.819249        -1.457471        -0.075186
 C         2.625498         0.340116        -0.855731
 O         2.701440         1.056320        -2.079040
 H        -0.761733        -0.227665         0.632937
 H        -0.334281         1.269416        -0.151546
 H        -0.452923        -0.221818        -1.244078
 H         1.944492         1.770950         1.322921
 H         2.078391         0.173052         2.154444
 H         4.201412         1.097753         0.427061
 H         4.264359        -1.862911        -1.435732
 H         1.559776        -1.730166        -1.123039
 H         1.538441        -2.325938         0.489994
 H         1.752299         1.083680        -2.427787
