19
Iteration:  2096charge 0 multiplicity 1
 C        -0.142394         0.297500        -0.198528
 C         1.377542        -0.005812        -0.021884
 C         1.984907         0.558416         1.261720
 C         3.350214         0.499654         0.573242
 C         3.286943        -0.850897        -0.239090
 O         4.385268        -1.478760        -0.904692
 C         1.928196        -1.436823        -0.015272
 C         2.695631         0.493796        -0.826960
 O         2.603123         0.946504        -2.050259
 H        -0.569890         0.084500         0.748613
 H        -0.447715         1.337072        -0.690042
 H        -0.637773        -0.348091        -0.939523
 H         1.800533         1.604612         1.338607
 H         1.878028        -0.026363         2.180952
 H         4.258814         0.801472         0.922620
 H         4.104876        -2.321249        -1.125380
 H         1.533400        -1.819181        -1.004987
 H         1.895668        -2.060348         0.873288
 H         3.335358         0.632910        -2.725283
