19
Iteration:  4039charge 0 multiplicity 1
 C        -0.112683         0.372016        -0.189050
 C         1.361685        -0.064374         0.071482
 C         2.045294         0.615677         1.272721
 C         3.255425         0.465034         0.457609
 C         3.214728        -0.929135        -0.390928
 O         4.476519        -1.493122        -0.646850
 C         1.929335        -1.515874         0.086931
 C         2.583062         0.366742        -0.947461
 O         2.699115         1.005296        -2.234110
 H        -0.804467         0.325946         0.691490
 H        -0.322892         1.329857        -0.522511
 H        -0.494882        -0.139634        -1.073587
 H         1.743394         1.629320         1.679580
 H         1.754448         0.044022         2.218278
 H         4.326598         0.729631         0.622725
 H         4.355127        -1.781088        -1.488256
 H         1.301186        -1.977499        -0.705083
 H         1.828649        -1.986079         1.069768
 H         2.925139         1.933978        -2.039358
