19
Iteration:  4295charge 0 multiplicity 1
 C        -0.164397         0.219641        -0.264566
 C         1.322860        -0.021207         0.150780
 C         2.156517         0.717337         1.322077
 C         3.299789         0.549325         0.462139
 C         3.191241        -0.873432        -0.280950
 O         4.220056        -1.470150        -0.821489
 C         1.898981        -1.507580         0.054666
 C         2.588151         0.393453        -0.897208
 O         2.893183         0.827423        -2.177192
 H        -0.793747        -0.534237         0.282698
 H        -0.452104         1.185262        -0.014086
 H        -0.364278         0.120027        -1.306965
 H         1.784434         1.727265         1.596519
 H         2.027957         0.297353         2.323124
 H         4.360822         0.809439         0.732237
 H         4.636485        -0.797779        -1.517235
 H         1.340147        -1.916228        -0.789473
 H         1.857846        -2.169716         0.957386
 H         3.010960         1.850515        -2.154557
