19
Iteration:  2814charge 0 multiplicity 1
 C        -0.176936         0.253312        -0.263380
 C         1.295959        -0.091604         0.030448
 C         2.047440         0.756629         1.216609
 C         3.382155         0.492737         0.428292
 C         3.301478        -0.881063        -0.310698
 O         4.384644        -1.542685        -0.832264
 C         1.880140        -1.474041         0.096197
 C         2.550087         0.323122        -0.818363
 O         2.749002         0.956714        -2.023013
 H        -0.922840        -0.385555         0.234106
 H        -0.270200         1.341944         0.204865
 H        -0.400910         0.303331        -1.440479
 H         1.738312         1.746706         1.277456
 H         1.957022         0.393362         2.205768
 H         4.361156         1.053146         0.605900
 H         4.273524        -1.229201        -1.799343
 H         1.598315        -2.147967        -0.735145
 H         1.780093        -2.017246         1.061957
 H         3.122868         1.785555        -1.781799
