19
Iteration:  1128charge 0 multiplicity 1
 C        -0.090923         0.166461        -0.242322
 C         1.372381        -0.001058         0.150334
 C         2.100286         0.743900         1.275293
 C         3.402940         0.609947         0.452718
 C         3.228299        -0.797170        -0.358285
 O         4.368565        -1.440217        -0.768266
 C         1.910265        -1.503840         0.127065
 C         2.601290         0.377413        -0.870553
 O         2.601462         0.750124        -2.239502
 H        -0.662807        -0.195140         0.685841
 H        -0.373733         1.234889        -0.307136
 H        -0.466205        -0.470397        -1.085163
 H         1.515813         1.690853         1.404690
 H         2.133778         0.265068         2.299772
 H         4.443257         0.938831         0.688058
 H         4.745450        -0.880346        -1.651790
 H         1.481560        -2.238471        -0.495768
 H         2.009691        -1.977787         1.098998
 H         2.097628         1.548761        -2.232417
