19
Iteration:  2463charge 0 multiplicity 1
 C        -0.050275         0.180106        -0.339853
 C         1.396368         0.017432        -0.013768
 C         1.961073         0.670367         1.274574
 C         3.380091         0.437704         0.623017
 C         3.253205        -0.890666        -0.389011
 O         4.413405        -1.550629        -0.855886
 C         1.877561        -1.478328         0.140085
 C         2.590532         0.477858        -0.780799
 O         2.606828         1.017022        -2.099706
 H        -0.604908        -0.385170         0.349077
 H        -0.324955         1.282421        -0.272169
 H        -0.317122        -0.125931        -1.348817
 H         1.885754         1.794040         1.326113
 H         1.647271         0.398891         2.263884
 H         4.342619         0.752965         1.132019
 H         4.167827        -1.629261        -1.908479
 H         1.441225        -2.106473        -0.588936
 H         1.803753        -1.891654         1.134625
 H         3.468117         1.501448        -2.272066
