19
Iteration:  3565charge 0 multiplicity 1
 C        -0.148928         0.293702        -0.233505
 C         1.354534         0.020452         0.029591
 C         2.260034         0.615540         1.215549
 C         3.428352         0.460705         0.322164
 C         3.238772        -0.901440        -0.353322
 O         4.421805        -1.622978        -0.442938
 C         1.822749        -1.526228        -0.083022
 C         2.594804         0.436382        -0.936898
 O         2.532490         1.125379        -2.096182
 H        -0.750720        -0.342412         0.320542
 H        -0.424097         1.320212        -0.098532
 H        -0.496839        -0.037016        -1.186113
 H         1.830740         1.607301         1.701065
 H         2.050508         0.017300         2.161624
 H         4.443775         0.932567         0.351248
 H         4.426915        -2.293075        -1.260770
 H         1.436673        -2.007625        -0.983467
 H         1.731233        -2.135449         0.865959
 H         2.618803         2.140942        -2.069312
