19
Iteration:  4350charge 0 multiplicity 1
 C        -0.082670         0.252816        -0.295005
 C         1.337109        -0.035715         0.109590
 C         2.050593         0.749548         1.233593
 C         3.379146         0.503653         0.479217
 C         3.201012        -0.860342        -0.306851
 O         4.321588        -1.605378        -0.817239
 C         1.914596        -1.517752         0.129721
 C         2.640143         0.376667        -0.834280
 O         2.741280         0.993951        -2.107133
 H        -0.815436        -0.393980         0.339013
 H        -0.411518         1.253203        -0.204814
 H        -0.016559        -0.031287        -1.339083
 H         1.563566         1.779637         1.189236
 H         1.742993         0.298660         2.187376
 H         4.364132         0.885896         0.748880
 H         4.464597        -1.362106        -1.852241
 H         1.506042        -2.137127        -0.667035
 H         1.757103        -2.011397         1.114123
 H         2.304059         1.896770        -2.216501
