19
Iteration:  4093charge 0 multiplicity 1
 C        -0.187707         0.274143        -0.157675
 C         1.332401        -0.034439         0.067038
 C         2.046627         0.690810         1.360533
 C         3.302005         0.525959         0.549988
 C         3.198818        -0.822629        -0.354810
 O         4.351370        -1.434758        -0.822783
 C         1.864712        -1.426968        -0.009887
 C         2.694494         0.434816        -0.846718
 O         2.888035         0.724688        -2.187283
 H        -0.707721        -0.428965         0.484318
 H        -0.720359         1.172471         0.066810
 H        -0.402892        -0.034581        -1.192955
 H         1.831622         1.917224         1.299772
 H         1.855582         0.019843         2.328339
 H         4.372800         0.843147         0.737976
 H         4.159330        -1.455059        -1.697463
 H         1.424557        -1.947542        -0.915063
 H         1.501321        -2.018185         0.828354
 H         2.589607         1.616433        -2.382914
