19
Iteration:  2238charge 0 multiplicity 1
 C        -0.119841         0.169819        -0.305957
 C         1.307341        -0.000896         0.032627
 C         2.111457         0.534659         1.250808
 C         3.387735         0.460818         0.430887
 C         3.278082        -0.855716        -0.378171
 O         4.362697        -1.726195        -0.654112
 C         1.933892        -1.411924         0.037431
 C         2.591149         0.508236        -0.912278
 O         2.559221         1.160038        -2.106263
 H        -0.835453        -0.434975         0.306340
 H        -0.360639         1.334317        -0.129577
 H        -0.228562        -0.073622        -1.390718
 H         1.938688         1.590592         1.428783
 H         2.040390        -0.180560         2.149963
 H         4.315145         0.837862         0.809742
 H         5.073916        -1.011833        -0.455048
 H         1.423504        -2.140936        -0.672712
 H         2.023308        -1.847887         1.039853
 H         2.711571         2.147914        -2.093447
