19
Iteration:  1278
 C        -0.128409         0.147489        -0.151439
 C         1.337888        -0.036713         0.043475
 C         2.009769         0.761798         1.209423
 C         3.287668         0.584172         0.339989
 C         3.278174        -0.923690        -0.363172
 O         4.477014        -1.454903        -0.819435
 C         1.981741        -1.517312         0.229243
 C         2.562566         0.298860        -0.962241
 O         2.607158         1.001533        -2.152308
 H        -0.676795        -0.520349         0.607554
 H        -0.408808         1.126210         0.054490
 H        -0.436404        -0.017567        -1.111485
 H         1.835937         1.852104         1.091420
 H         2.074925         0.510187         2.307377
 H         4.305425         0.915952         0.645767
 H         4.495287        -2.221648        -0.413960
 H         1.614293        -2.384524        -0.359354
 H         2.172002        -1.708751         1.321861
 H         2.462027         1.956080        -2.058616
