19
Iteration:  3183charge 0 multiplicity 1
 C        -0.206823         0.322558        -0.300645
 C         1.298077        -0.040429         0.087194
 C         2.066856         0.737698         1.220612
 C         3.332994         0.513853         0.381732
 C         3.257880        -0.880304        -0.232434
 O         4.383051        -1.466905        -0.810070
 C         1.949833        -1.602801         0.098703
 C         2.539249         0.305212        -0.870575
 O         2.793967         0.981488        -2.058260
 H        -0.876763        -0.316470         0.348516
 H        -0.371539         1.407583        -0.191109
 H        -0.389424         0.230413        -1.304935
 H         1.804619         1.876134         1.087541
 H         2.155807         0.312042         2.256953
 H         4.413460         0.837714         0.469790
 H         4.147015        -2.247444        -1.326320
 H         1.658964        -2.287163        -0.687895
 H         1.874441        -2.213060         1.078542
 H         2.635853         1.925889        -1.755942
