19
Iteration:  1686
 C        -0.096600         0.268428        -0.385185
 C         1.329935         0.002492         0.089853
 C         2.101849         0.585961         1.316470
 C         3.377516         0.476067         0.420379
 C         3.252496        -0.847016        -0.311558
 O         4.440171        -1.428022        -0.771583
 C         1.935862        -1.515954         0.079350
 C         2.529211         0.385805        -0.825303
 O         2.635424         0.967355        -2.092455
 H        -0.843205        -0.017268         0.465920
 H        -0.176996         1.280946        -0.487446
 H        -0.452455        -0.306781        -1.201489
 H         1.852708         1.618707         1.490121
 H         1.987788        -0.114002         2.221242
 H         4.419975         0.979952         0.509227
 H         4.156648        -2.266708        -1.354449
 H         1.391303        -1.965617        -0.754106
 H         1.846679        -1.943446         1.098125
 H         2.189616         1.867043        -2.073218
