19
Iteration:  1855
 C        -0.114008         0.218330        -0.383721
 C         1.363079        -0.018117         0.059141
 C         2.200368         0.613181         1.281412
 C         3.331983         0.423667         0.451662
 C         3.147698        -0.896020        -0.400153
 O         4.459188        -1.393655        -0.713986
 C         1.853363        -1.529694         0.160963
 C         2.572441         0.376984        -0.868078
 O         2.584645         1.090940        -2.094341
 H        -0.725864        -0.387425         0.185621
 H        -0.421283         1.350434        -0.275670
 H        -0.326224        -0.007463        -1.456082
 H         1.943542         1.709043         1.468759
 H         2.144814         0.167239         2.325391
 H         4.411755         0.594160         0.583620
 H         4.226884        -2.307136        -1.190213
 H         1.407915        -2.107944        -0.725500
 H         1.727939        -2.118100         1.107596
 H         3.384561         1.728154        -2.007493
