19
Iteration:  2306
 C        -0.144142         0.190923        -0.284567
 C         1.334875         0.041993         0.016431
 C         2.040092         0.660628         1.262253
 C         3.306718         0.356264         0.611550
 C         3.188701        -0.890595        -0.304640
 O         4.345047        -1.454366        -0.889928
 C         1.915092        -1.486573         0.054247
 C         2.660038         0.414285        -0.836567
 O         2.741509         0.961449        -2.114352
 H        -0.699722         0.273934         0.630321
 H        -0.358648         1.220833        -0.944559
 H        -0.527471        -0.667399        -0.854790
 H         2.023803         1.759177         1.397210
 H         1.895473         0.086303         2.265103
 H         4.384078         0.657190         0.892487
 H         4.960911        -0.718082        -1.194514
 H         1.562664        -2.126853        -0.754934
 H         1.834803        -1.898436         1.070469
 H         2.658066         1.878588        -1.971844
