19
Iteration:  2555charge 0 multiplicity 1
 C        -0.106654         0.243234        -0.192377
 C         1.346561         0.049741        -0.012031
 C         2.058404         0.610344         1.202379
 C         3.369097         0.512431         0.447622
 C         3.285576        -0.913332        -0.245329
 O         4.437867        -1.568071        -0.640685
 C         1.888035        -1.463201        -0.112857
 C         2.624144         0.450790        -0.841331
 O         2.658807         1.029426        -2.079912
 H        -0.678142        -0.172223         0.726024
 H        -0.349328         1.263349        -0.393786
 H        -0.526789        -0.338245        -1.073826
 H         1.766837         1.638855         1.273542
 H         1.875541         0.269341         2.163132
 H         4.316032         0.822237         0.735356
 H         4.353039        -2.074158        -1.531021
 H         1.452030        -1.828522        -1.069344
 H         1.635287        -2.094846         0.715575
 H         1.777158         1.285373        -2.265035
