19
Iteration:   740
 C        -0.137452         0.244585        -0.046213
 C         1.318597        -0.057594         0.135729
 C         2.003312         0.768659         1.230711
 C         3.388774         0.563055         0.440064
 C         3.228895        -0.803403        -0.382601
 O         4.316334        -1.422050        -0.952404
 C         1.950503        -1.467183         0.119078
 C         2.526517         0.358226        -0.866516
 O         2.810307         0.809956        -2.195626
 H        -0.766507        -0.271086         0.738300
 H        -0.276477         1.320295         0.186297
 H        -0.398732         0.087666        -1.069792
 H         1.775673         1.802361         1.102931
 H         1.772904         0.574546         2.320889
 H         4.355156         0.981941         0.590439
 H         4.745703        -1.849565        -0.115487
 H         1.467829        -2.195308        -0.638450
 H         1.861379        -1.873392         1.151818
 H         2.825635        -0.026677        -2.779411
