19
Iteration:  3637
 C        -0.118095         0.235952        -0.301188
 C         1.297175         0.020603         0.093839
 C         2.045512         0.680462         1.306435
 C         3.378352         0.497115         0.509839
 C         3.235628        -0.869719        -0.243921
 O         4.290141        -1.417329        -0.928935
 C         1.874344        -1.501402         0.090486
 C         2.580393         0.367809        -0.769502
 O         2.860809         0.841477        -2.133223
 H        -0.888225        -0.128166         0.508660
 H        -0.243686         1.375078        -0.496400
 H        -0.373961        -0.357701        -1.233321
 H         1.820432         1.641772         1.444768
 H         1.989990         0.292361         2.280880
 H         4.375507         0.955195         0.605873
 H         3.977395        -1.449072        -1.951747
 H         1.309397        -1.978013        -0.719171
 H         1.781847        -2.103824         0.997194
 H         3.059252         1.819429        -1.976443
