19
Iteration:  2649
 C        -0.085989         0.189558        -0.285496
 C         1.327577        -0.048303         0.088146
 C         2.124866         0.733435         1.258585
 C         3.428536         0.530282         0.512487
 C         3.220221        -0.876108        -0.333869
 O         4.319075        -1.513276        -0.761619
 C         1.896342        -1.518685        -0.067565
 C         2.606098         0.396106        -0.828563
 O         2.613239         1.032332        -2.023114
 H        -0.784968        -0.363395         0.248290
 H        -0.279116         1.300332        -0.290256
 H        -0.237372        -0.076549        -1.368287
 H         1.722934         1.745525         1.131568
 H         1.886146         0.574524         2.329208
 H         4.379899         0.972914         0.505648
 H         3.962815        -2.166288        -1.253832
 H         1.494110        -2.026765        -0.946605
 H         1.826585        -2.125024         0.885733
 H         3.634123         1.017636        -2.106390
