19
Iteration:  4559charge 0 multiplicity 1
 C        -0.108305         0.249298        -0.173471
 C         1.306227        -0.014118         0.023185
 C         2.071563         0.653436         1.210648
 C         3.365534         0.401968         0.466865
 C         3.253259        -0.866007        -0.346979
 O         4.397032        -1.485977        -0.663319
 C         1.863208        -1.452642        -0.004532
 C         2.573621         0.348933        -0.949199
 O         2.710542         1.145099        -2.145383
 H        -0.797414        -0.500519         0.392239
 H        -0.580653         1.088780         0.249051
 H        -0.283857         0.211390        -1.257877
 H         1.919236         1.705893         1.320877
 H         1.881257         0.247823         2.234145
 H         4.402918         0.581627         0.824130
 H         4.536278        -2.284808        -0.215404
 H         1.450604        -2.008739        -0.811208
 H         1.768477        -1.923648         0.984146
 H         2.820698         0.529618        -2.807905
