19
Iteration:  3621
 C        -0.160605         0.295431        -0.268631
 C         1.284649        -0.098948         0.110986
 C         2.102887         0.686943         1.221251
 C         3.341432         0.507383         0.452286
 C         3.226071        -0.853263        -0.271683
 O         4.374477        -1.506243        -0.870468
 C         1.877401        -1.466525         0.093937
 C         2.613494         0.367835        -0.872633
 O         2.791063         0.922324        -2.021228
 H        -0.924413         0.039318         0.367313
 H        -0.371942         1.331713        -0.233721
 H        -0.333057         0.020281        -1.313740
 H         1.712289         1.834864         1.137953
 H         2.006365         0.209197         2.278304
 H         4.312280         0.902722         0.740361
 H         4.171659        -1.858316        -1.742817
 H         1.686873        -2.124609        -0.769643
 H         1.686650        -2.133118         0.967565
 H         2.724723         1.877292        -2.049869
