19
Iteration:  4334charge 0 multiplicity 1
 C        -0.114220         0.207078        -0.336066
 C         1.334882         0.050553        -0.004102
 C         2.001607         0.729230         1.305489
 C         3.350968         0.544224         0.555336
 C         3.262912        -0.867728        -0.300621
 O         4.248744        -1.608760        -0.900867
 C         1.949221        -1.436596         0.149125
 C         2.648300         0.375876        -0.819108
 O         2.772392         0.889115        -2.091482
 H        -0.682553        -0.610165         0.193448
 H        -0.550607         1.261801         0.030444
 H        -0.501670         0.019694        -1.379769
 H         1.976359         1.817620         1.222701
 H         2.091643         0.144591         2.242823
 H         4.354127         0.890513         0.799314
 H         4.568641        -1.036571        -1.658673
 H         1.463557        -2.108021        -0.636594
 H         2.018772        -1.852400         1.161042
 H         2.457691         1.775090        -2.002717
