19
Iteration:  3728charge 0 multiplicity 1
 C        -0.157245         0.332672        -0.160526
 C         1.351806         0.012302         0.031454
 C         2.090028         0.609695         1.211590
 C         3.320947         0.420396         0.443387
 C         3.219240        -0.886984        -0.289768
 O         4.456638        -1.504744        -0.641736
 C         1.865748        -1.539058        -0.000158
 C         2.602913         0.395477        -0.932077
 O         2.685753         1.047203        -2.184599
 H        -0.855868        -0.321520         0.532854
 H        -0.173444         1.419965        -0.100605
 H        -0.508751        -0.019751        -1.097284
 H         1.865420         1.583966         1.428543
 H         1.997549         0.090446         2.127777
 H         4.279570         0.781180         0.746874
 H         4.252930        -2.197878        -1.421500
 H         1.432831        -2.147476        -0.792800
 H         1.906387        -1.979452         1.024000
 H         2.745651         2.008195        -2.177870
