19
Iteration:  1927charge 0 multiplicity 1
 C        -0.081539         0.354743        -0.212991
 C         1.310856        -0.077497         0.034473
 C         1.986701         0.681184         1.191372
 C         3.325541         0.413964         0.495906
 C         3.266098        -0.890223        -0.352614
 O         4.486717        -1.433970        -0.749043
 C         1.927187        -1.577401         0.026772
 C         2.573297         0.318187        -0.859272
 O         2.592729         1.054107        -2.043008
 H        -0.582567         0.090956         0.825519
 H        -0.127922         1.344952        -0.487743
 H        -0.715029        -0.195403        -0.964776
 H         1.751915         1.703368         1.208171
 H         1.760739         0.419893         2.204457
 H         4.206168         0.828721         0.817577
 H         4.689569        -1.348603        -1.729444
 H         1.494699        -2.115634        -0.793736
 H         1.785651        -2.277439         0.835669
 H         3.502985         0.982145        -2.425173
