19
Iteration:  4393
 C        -0.159852         0.327214        -0.261700
 C         1.363212         0.005274         0.028707
 C         2.089921         0.580152         1.204176
 C         3.401365         0.446025         0.383624
 C         3.232134        -0.897212        -0.326757
 O         4.497765        -1.504186        -0.614410
 C         1.851447        -1.502605         0.047443
 C         2.597168         0.372848        -0.886193
 O         2.558180         1.065189        -2.143798
 H        -0.879023         0.356445         0.729091
 H        -0.225659         1.352669        -0.708170
 H        -0.539354        -0.315597        -1.105051
 H         1.937957         1.555205         1.648934
 H         2.046570        -0.015776         2.064416
 H         4.432416         0.760847         0.511388
 H         4.343091        -2.433348        -0.996977
 H         1.354335        -2.082951        -0.696403
 H         1.834463        -2.068826         1.010415
 H         3.033039         1.967210        -1.903463
