19
Iteration:  3278
 C        -0.111734         0.351551        -0.221738
 C         1.320697        -0.064260        -0.000927
 C         1.974362         0.711053         1.258479
 C         3.343209         0.456574         0.496760
 C         3.219309        -0.892710        -0.388464
 O         4.311905        -1.515899        -0.819938
 C         1.974887        -1.566040         0.167384
 C         2.596225         0.304114        -0.930699
 O         2.797888         0.971455        -2.113972
 H        -0.594806         0.085636         0.763530
 H        -0.187722         1.425371        -0.498302
 H        -0.716484        -0.189566        -1.158540
 H         1.688711         1.738251         1.355403
 H         1.718575         0.254994         2.301201
 H         4.330757         0.970896         0.692977
 H         4.969007        -0.840358        -1.132827
 H         1.415294        -2.272149        -0.442613
 H         2.063249        -1.964818         1.172609
 H         2.492890         1.915761        -1.992160
