19
Iteration:   373
 C        -0.234120         0.243427        -0.119814
 C         1.309886         0.055494         0.099689
 C         2.126532         0.754894         1.240952
 C         3.414592         0.580362         0.384053
 C         3.278031        -0.855541        -0.228303
 O         4.354699        -1.540957        -0.934489
 C         1.885166        -1.409936         0.144620
 C         2.599345         0.332208        -0.889243
 O         2.721741         0.899352        -2.172874
 H        -0.933185         0.164246         0.794773
 H        -0.459319         1.216206        -0.545246
 H        -0.570239        -0.488951        -0.894690
 H         1.946389         1.785229         1.548812
 H         2.183287         0.051230         2.117599
 H         4.397878         1.026765         0.461530
 H         5.035477        -2.043545        -0.256796
 H         1.409366        -2.051915        -0.703866
 H         1.672791        -2.014932         1.114071
 H         2.281973         0.248055        -2.814447
