19
Iteration:  4578charge 0 multiplicity 1
 C        -0.201508         0.270509        -0.203896
 C         1.324040        -0.000589        -0.004405
 C         2.100830         0.631889         1.221373
 C         3.347793         0.528011         0.338744
 C         3.201648        -0.932612        -0.352641
 O         4.449477        -1.566583        -0.675123
 C         1.829617        -1.499994        -0.012374
 C         2.626171         0.415821        -0.897849
 O         2.702297         1.106585        -2.020297
 H        -0.736935        -0.327785         0.454663
 H        -0.386758         1.296039         0.047658
 H        -0.563943         0.079256        -1.217997
 H         1.738590         1.606515         1.471572
 H         2.136960         0.193452         2.318797
 H         4.335229         1.033075         0.375294
 H         4.829496        -1.901168         0.091143
 H         1.356332        -2.003837        -0.841019
 H         1.830090        -2.227448         0.836062
 H         3.026994         0.691901        -2.782888
