19
Iteration:   442charge 0 multiplicity 1
 C        -0.081841         0.313120        -0.292130
 C         1.366946         0.036901         0.016483
 C         2.166273         0.788869         1.165923
 C         3.433826         0.472126         0.295319
 C         3.240250        -0.922972        -0.333323
 O         4.466975        -1.706463        -0.758056
 C         1.924660        -1.439143         0.224527
 C         2.519050         0.277940        -0.901833
 O         2.401584         1.130264        -1.964030
 H        -0.623295         0.511946         0.586242
 H        -0.133499         1.301376        -0.887823
 H        -0.563284        -0.569682        -0.948454
 H         1.874178         1.776609         1.322571
 H         2.174304         0.113427         2.122675
 H         4.245945         1.182442         0.027340
 H         5.166801        -1.706337        -0.116805
 H         1.465646        -2.324415        -0.474803
 H         1.960403        -1.899041         1.213871
 H         2.436122         0.542062        -2.693212
