19
Iteration:  4646charge 0 multiplicity 1
 C        -0.113712         0.240472        -0.447843
 C         1.320784        -0.019196         0.088591
 C         2.036638         0.682626         1.253712
 C         3.356192         0.478507         0.458922
 C         3.282580        -0.909002        -0.279614
 O         4.387673        -1.513529        -0.837745
 C         1.834435        -1.454035         0.116974
 C         2.595855         0.282878        -0.808214
 O         2.798390         1.092698        -1.955035
 H        -0.739588         0.431004         0.416282
 H        -0.119392         1.119160        -1.017575
 H        -0.497390        -0.612255        -0.966616
 H         1.919751         1.746022         1.501863
 H         1.912672         0.204175         2.323139
 H         4.319090         0.976454         0.514575
 H         4.183715        -1.527485        -1.864126
 H         1.253533        -1.956818        -0.634140
 H         1.805397        -2.074103         1.023351
 H         1.980857         0.832244        -2.496323
