19
Iteration:  2309
 C        -0.122709         0.185333        -0.282166
 C         1.336323         0.040964         0.010898
 C         2.056660         0.653137         1.276483
 C         3.299465         0.345899         0.588453
 C         3.204167        -0.860398        -0.323524
 O         4.318516        -1.456884        -0.865687
 C         1.905580        -1.473608         0.057014
 C         2.666764         0.429658        -0.823482
 O         2.755772         0.952853        -2.122226
 H        -0.750384         0.276715         0.650359
 H        -0.318313         1.153979        -0.917137
 H        -0.466729        -0.719859        -0.821011
 H         1.919823         1.739968         1.425088
 H         1.966438         0.020014         2.092457
 H         4.277041         0.631416         0.933484
 H         4.965009        -0.694356        -1.264968
 H         1.528547        -2.113420        -0.703426
 H         1.771231        -1.981209         1.044267
 H         2.501314         1.922580        -1.984881
