19
Iteration:   459
 C        -0.092016         0.271935        -0.265639
 C         1.379946         0.045880         0.058818
 C         2.152924         0.733942         1.224476
 C         3.387275         0.493848         0.347417
 C         3.284883        -0.914076        -0.338358
 O         4.340156        -1.650007        -0.770452
 C         1.959968        -1.459811         0.214669
 C         2.582658         0.322367        -0.927846
 O         2.496886         1.087793        -2.107682
 H        -0.741243         0.126361         0.675657
 H        -0.288528         1.251016        -0.644530
 H        -0.384343        -0.467175        -0.964492
 H         2.014421         1.904837         1.225065
 H         2.021958         0.380673         2.221719
 H         4.457182         0.775376         0.558824
 H         4.942355        -1.461139        -0.173738
 H         1.396113        -2.133594        -0.382080
 H         2.004020        -1.908376         1.243630
 H         2.051237         0.628719        -2.782657
