19
Iteration:  3534charge 0 multiplicity 1
 C        -0.075531         0.288056        -0.225907
 C         1.331851        -0.038570         0.107204
 C         2.101884         0.636994         1.235037
 C         3.396512         0.503101         0.392170
 C         3.264393        -0.885052        -0.375006
 O         4.382236        -1.614814        -0.618805
 C         1.860212        -1.501674         0.016752
 C         2.618420         0.413677        -0.903731
 O         2.581955         1.107705        -2.115975
 H        -0.729146        -0.149618         0.548502
 H        -0.092089         1.395131        -0.385379
 H        -0.360374        -0.196151        -1.316930
 H         1.679064         1.656149         1.180734
 H         1.980874         0.019250         2.174120
 H         4.401806         0.993685         0.534011
 H         4.120879        -2.306824        -1.195950
 H         1.425001        -2.015317        -0.869994
 H         1.842577        -2.154197         0.922090
 H         3.067806         1.904014        -2.090724
