19
Iteration:  4420charge 0 multiplicity 1
 C        -0.079261         0.350037        -0.180471
 C         1.404756        -0.047810        -0.018044
 C         2.031907         0.611972         1.260487
 C         3.337865         0.499637         0.410998
 C         3.246122        -0.833726        -0.378718
 O         4.434602        -1.575524        -0.546041
 C         1.936649        -1.565790        -0.065901
 C         2.583108         0.362369        -0.874607
 O         2.507742         1.115175        -2.146855
 H        -0.513448         0.582150         0.741200
 H        -0.147493         1.277620        -0.776489
 H        -0.519730        -0.424498        -0.765680
 H         1.730288         1.741258         1.341532
 H         2.055814        -0.054828         2.271698
 H         4.369160         0.863300         0.567018
 H         4.279829        -2.359486        -1.171971
 H         1.428431        -2.097116        -0.944518
 H         1.928703        -2.018337         0.926978
 H         3.507698         1.368605        -2.248635
