19
Iteration:  4193
 C        -0.115698         0.255782        -0.368941
 C         1.332517         0.046257         0.000919
 C         2.139485         0.595317         1.195892
 C         3.446354         0.426983         0.387511
 C         3.236356        -0.907783        -0.277969
 O         4.400825        -1.607869        -0.616769
 C         1.884142        -1.498113         0.144311
 C         2.621963         0.418381        -0.903084
 O         2.523497         1.153909        -2.069814
 H        -0.893928         0.260623         0.454073
 H        -0.196833         1.222925        -0.834440
 H        -0.446177        -0.560564        -1.009044
 H         1.980751         1.721394         1.151867
 H         2.285322        -0.016649         2.099059
 H         4.395470         0.829271         0.605262
 H         4.239196        -1.995185        -1.428724
 H         1.507239        -2.119136        -0.712650
 H         1.734872        -2.118553         1.063041
 H         2.798783         2.028178        -1.844167
