19
Iteration:  2920charge 0 multiplicity 1
 C        -0.113613         0.271948        -0.270283
 C         1.361462        -0.006269        -0.025806
 C         2.110810         0.688338         1.255629
 C         3.343112         0.368975         0.493551
 C         3.225027        -0.902451        -0.344401
 O         4.473071        -1.509713        -0.737162
 C         1.911900        -1.483728         0.109672
 C         2.566610         0.384467        -0.872338
 O         2.591585         1.057715        -2.119512
 H        -0.740669         0.255468         0.617859
 H        -0.155606         1.237062        -0.725850
 H        -0.582174        -0.349947        -0.956269
 H         1.849081         1.807584         1.282821
 H         1.824495        -0.014304         2.119445
 H         4.393846         0.702488         0.772688
 H         4.268447        -2.152585        -1.323692
 H         1.455127        -2.140633        -0.612183
 H         1.835356        -1.923882         1.123088
 H         2.695233         1.985090        -2.048282
