19
Iteration:  1055
 C        -0.127727         0.125253        -0.068862
 C         1.327201        -0.068697         0.032584
 C         2.073666         0.774470         1.165243
 C         3.390305         0.486486         0.316964
 C         3.275007        -0.862903        -0.395981
 O         4.443588        -1.534594        -0.677763
 C         1.973403        -1.444494         0.215823
 C         2.519644         0.269521        -1.042508
 O         2.554697         1.206602        -2.098505
 H        -0.632348        -0.503053         0.602244
 H        -0.519944         1.181659        -0.033117
 H        -0.411914        -0.307310        -1.111561
 H         2.092141         1.926643         1.007583
 H         1.844062         0.428158         2.138470
 H         4.398784         1.028840         0.107043
 H         4.086699        -2.555362        -0.354388
 H         1.491750        -2.239060        -0.485587
 H         1.933750        -1.940617         1.238066
 H         3.301563         0.914312        -2.672604
