19
Iteration:  2222charge 0 multiplicity 1
 C        -0.163333         0.164884        -0.325945
 C         1.396806         0.095746         0.015454
 C         2.152654         0.610551         1.314800
 C         3.419143         0.423818         0.453521
 C         3.265876        -0.854278        -0.407859
 O         4.375577        -1.704437        -0.597906
 C         1.885064        -1.411692        -0.081746
 C         2.632587         0.443780        -0.857080
 O         2.537103         1.141408        -2.102867
 H        -0.624461        -0.630972         0.291115
 H        -0.702794         0.991338        -0.090079
 H        -0.329455        -0.167649        -1.347763
 H         1.938873         1.702578         1.514955
 H         2.062105         0.030695         2.242507
 H         4.503096         0.779428         0.501597
 H         5.195856        -1.334491        -0.452515
 H         1.458246        -1.886975        -0.942968
 H         1.629250        -2.087290         0.781094
 H         1.938305         1.966496        -1.924149
