19
Iteration:  1649charge 0 multiplicity 1
 C        -0.040521         0.062493        -0.324069
 C         1.377905         0.013444         0.070376
 C         2.082110         0.688396         1.263769
 C         3.410245         0.526478         0.434531
 C         3.250152        -0.859543        -0.315667
 O         4.260542        -1.675079        -0.715262
 C         1.938452        -1.448811         0.051530
 C         2.588937         0.463183        -0.842778
 O         2.535891         1.096955        -2.110776
 H        -0.553016        -0.519015         0.369193
 H        -0.436443         1.113286        -0.218738
 H        -0.238914        -0.289734        -1.357053
 H         1.943968         1.824676         1.311996
 H         1.965748         0.312353         2.239042
 H         4.414944         0.827435         0.564399
 H         5.103211        -1.127690        -1.140885
 H         1.525817        -2.029223        -0.783680
 H         1.996825        -2.200789         0.879293
 H         2.971861         2.015228        -2.000927
