19
Iteration:  3228
 C        -0.197540         0.207760        -0.167841
 C         1.324034         0.097068         0.003932
 C         2.130747         0.612122         1.332833
 C         3.353070         0.502326         0.518695
 C         3.181138        -0.825076        -0.285405
 O         4.341049        -1.507403        -0.689995
 C         1.884601        -1.386373        -0.092464
 C         2.650178         0.485209        -0.867727
 O         2.756865         0.759464        -2.207246
 H        -0.526842        -0.538010         0.595117
 H        -0.665357         1.216550        -0.117744
 H        -0.406042        -0.062035        -1.132161
 H         1.927725         1.713696         1.644583
 H         2.067404        -0.178896         2.057558
 H         4.366598         0.891004         0.806741
 H         4.553351        -1.062517        -1.519004
 H         1.505663        -1.984726        -0.948737
 H         1.678726        -2.044088         0.826064
 H         2.756317         1.723094        -2.462783
