19
Iteration:  4792charge 0 multiplicity 1
 C        -0.071155         0.383374        -0.381940
 C         1.346896        -0.060603         0.038241
 C         2.056854         0.658191         1.269591
 C         3.324688         0.529665         0.460906
 C         3.223605        -0.941576        -0.343903
 O         4.343564        -1.521552        -0.782161
 C         1.920581        -1.563951         0.142718
 C         2.572877         0.323184        -0.856430
 O         2.765055         1.010039        -2.032765
 H        -0.824347        -0.138877         0.254352
 H        -0.238229         1.400130        -0.135461
 H        -0.139762         0.155986        -1.393051
 H         1.697734         1.770545         1.518478
 H         1.779568         0.153846         2.300578
 H         4.343953         0.920866         0.432802
 H         4.220218        -1.769665        -1.697938
 H         1.450283        -2.071411        -0.721770
 H         1.812235        -1.996651         1.131763
 H         2.412586         1.842824        -1.902119
