19
Iteration:  4250
 C        -0.183256         0.346983        -0.132273
 C         1.283688        -0.014143        -0.078238
 C         1.995661         0.644412         1.196864
 C         3.390286         0.438117         0.522307
 C         3.237214        -0.874792        -0.279151
 O         4.421506        -1.471161        -0.728405
 C         1.909016        -1.494708         0.029033
 C         2.666175         0.350151        -0.919616
 O         2.734605         0.952227        -2.161518
 H        -0.579139         0.124139         0.899919
 H        -0.190445         1.366023        -0.381157
 H        -0.724780        -0.130547        -0.914010
 H         1.771657         1.669607         1.597487
 H         1.909503         0.204465         2.192493
 H         4.406636         0.826540         0.665834
 H         4.122801        -2.230271        -1.380873
 H         1.715945        -2.097740        -0.873048
 H         1.734935        -2.066518         0.977586
 H         2.493668         1.912539        -1.922237
