19
Iteration:  1113
 C        -0.103609         0.087793        -0.156276
 C         1.349083        -0.003015         0.040939
 C         2.113271         0.737857         1.251442
 C         3.330550         0.564179         0.378279
 C         3.245502        -0.820445        -0.276999
 O         4.407309        -1.490122        -0.748230
 C         1.965587        -1.404149         0.174098
 C         2.541901         0.405071        -0.870354
 O         2.654886         0.860584        -2.208892
 H        -0.772822        -0.422762         0.634108
 H        -0.369490         1.121409        -0.292848
 H        -0.254022        -0.411360        -1.085644
 H         2.062572         1.770650         1.412940
 H         2.029314         0.243437         2.233814
 H         4.299587         0.962599         0.463031
 H         4.393391        -1.394997        -1.678403
 H         1.493943        -1.860809        -0.763797
 H         1.739991        -1.975610         1.114358
 H         1.819106         1.260474        -2.518381
