19
Iteration:  2968
 C        -0.061736         0.269803        -0.308982
 C         1.290982        -0.054202         0.075595
 C         2.065831         0.739918         1.284638
 C         3.346625         0.484071         0.380337
 C         3.235668        -0.862527        -0.324882
 O         4.329302        -1.608590        -0.729858
 C         1.972038        -1.541326         0.122969
 C         2.552484         0.342755        -0.882219
 O         2.661316         1.046477        -2.080073
 H        -0.603481        -0.212141         0.441738
 H        -0.280924         1.374634        -0.365722
 H        -0.443706        -0.092669        -1.299055
 H         1.828890         1.749545         1.069396
 H         2.001621         0.350142         2.373191
 H         4.331727         0.863399         0.434370
 H         4.650904        -1.282944        -1.671612
 H         1.593755        -2.238998        -0.661369
 H         2.002406        -2.042595         1.088177
 H         2.977883         2.004139        -1.918518
