19
Iteration:  2916charge 0 multiplicity 1
 C        -0.095980         0.281897        -0.262070
 C         1.336023         0.017171        -0.023253
 C         2.098208         0.667480         1.244329
 C         3.357217         0.384803         0.527052
 C         3.221709        -0.887877        -0.352302
 O         4.422423        -1.502962        -0.723106
 C         1.971252        -1.466804         0.067584
 C         2.597518         0.387035        -0.880780
 O         2.578467         1.021999        -2.117233
 H        -0.763296         0.243646         0.710800
 H        -0.146553         1.322559        -0.660022
 H        -0.544851        -0.583977        -0.965426
 H         1.873954         1.735110         1.398352
 H         1.798886         0.053369         2.042455
 H         4.308425         0.799997         0.823118
 H         4.172058        -2.353690        -1.335660
 H         1.520539        -2.164448        -0.710436
 H         1.901924        -1.947480         1.054485
 H         2.773311         2.017188        -2.063889
