19
Iteration:  1341charge 0 multiplicity 1
 C        -0.114246         0.217803        -0.224487
 C         1.307628         0.003385         0.113224
 C         2.031702         0.589982         1.323629
 C         3.416221         0.664310         0.487542
 C         3.249980        -0.772240        -0.306051
 O         4.347487        -1.399933        -0.881709
 C         1.988540        -1.454524         0.069806
 C         2.566167         0.443476        -0.805482
 O         2.628113         0.618656        -2.212143
 H        -0.807287        -0.035025         0.661409
 H        -0.280257         1.326876        -0.471923
 H        -0.364715        -0.568107        -1.002977
 H         1.712629         1.697107         1.537304
 H         2.152011         0.040939         2.222201
 H         4.381339         1.014070         0.705203
 H         4.818719        -0.740106        -1.306633
 H         1.646439        -2.051488        -0.796196
 H         1.872747        -2.050158         0.940595
 H         2.640347         1.579189        -2.194234
