19
Iteration:  4857charge 0 multiplicity 1
 C        -0.101162         0.242925        -0.286671
 C         1.358747         0.027055         0.079489
 C         2.031630         0.595362         1.259524
 C         3.361107         0.475748         0.517881
 C         3.207514        -0.869708        -0.276135
 O         4.373816        -1.511133        -0.830148
 C         1.825076        -1.412120         0.029562
 C         2.596145         0.443005        -0.836472
 O         2.789745         0.871281        -2.094683
 H        -0.910652         0.280340         0.524390
 H        -0.243101         1.191985        -0.746173
 H        -0.582612        -0.477735        -0.911217
 H         1.781990         1.691558         1.485684
 H         1.723771         0.224023         2.289675
 H         4.349226         0.785749         0.806841
 H         4.559826        -1.198336        -1.684295
 H         1.392328        -1.816835        -0.956760
 H         1.591859        -2.196833         0.884786
 H         3.114954         1.747650        -2.043410
