19
Iteration:  4285
 C        -0.160776         0.220559        -0.202760
 C         1.323316        -0.023667         0.114058
 C         2.063118         0.753866         1.342472
 C         3.351928         0.507676         0.447397
 C         3.131583        -0.831593        -0.343735
 O         4.330804        -1.484069        -0.799421
 C         1.836899        -1.493619         0.048269
 C         2.609148         0.377048        -0.855422
 O         2.887731         0.830007        -2.159567
 H        -0.937803        -0.263501         0.341359
 H        -0.303635         1.190578         0.012841
 H        -0.395629         0.076335        -1.221115
 H         1.737293         1.775327         1.351950
 H         2.100250         0.029201         2.137463
 H         4.409030         0.882691         0.485167
 H         4.589527        -0.971918        -1.638968
 H         1.560731        -2.076726        -0.826580
 H         1.752691        -2.135048         0.945889
 H         2.868213         1.854843        -2.148215
