19
Iteration:  3033
 C        -0.198190         0.237093        -0.222277
 C         1.272684        -0.093248         0.203222
 C         2.124458         0.720170         1.247948
 C         3.351754         0.515174         0.397495
 C         3.158556        -0.865726        -0.315904
 O         4.407396        -1.400245        -0.787927
 C         1.789994        -1.479299         0.056589
 C         2.588686         0.408376        -0.855257
 O         2.898618         0.849789        -2.138094
 H        -0.918661        -0.250297         0.337830
 H        -0.308573         1.300344         0.042372
 H        -0.339320        -0.037929        -1.246147
 H         1.813887         1.798360         1.273662
 H         2.131585         0.110794         2.323520
 H         4.387110         0.555296         0.708395
 H         4.241884        -1.592872        -1.830596
 H         1.424262        -1.942169        -0.879304
 H         1.698009        -2.208101         0.857414
 H         2.663544         1.790837        -2.212341
