19
Iteration:  1976charge 0 multiplicity 1
 C        -0.111954         0.096642        -0.313337
 C         1.335797        -0.031662         0.033868
 C         2.124193         0.667987         1.354572
 C         3.357242         0.503093         0.386035
 C         3.232877        -0.838008        -0.306667
 O         4.338539        -1.548252        -0.795791
 C         1.922869        -1.431996         0.065458
 C         2.564630         0.432107        -0.865366
 O         2.677164         1.099020        -2.068132
 H        -0.795660        -0.418668         0.244359
 H        -0.375029         1.190435        -0.586180
 H        -0.195724        -0.322741        -1.314246
 H         1.714076         1.697758         1.675581
 H         2.081266         0.087780         2.339091
 H         4.405508         0.990208         0.519241
 H         4.009313        -2.496396        -1.129338
 H         1.448549        -2.164855        -0.699948
 H         1.887110        -2.027133         1.033071
 H         3.198298         1.909918        -1.818676
