19
Iteration:  1057
 C        -0.114844         0.142164        -0.076102
 C         1.330830        -0.083275         0.049851
 C         2.065655         0.783065         1.156913
 C         3.381203         0.479996         0.308468
 C         3.261420        -0.856618        -0.395421
 O         4.442209        -1.542415        -0.675282
 C         1.971554        -1.448191         0.207537
 C         2.513560         0.284237        -1.041892
 O         2.572142         1.205619        -2.099537
 H        -0.592774        -0.613128         0.632279
 H        -0.540413         1.169302         0.000451
 H        -0.361605        -0.339239        -1.049822
 H         2.072986         1.852392         1.027434
 H         1.806865         0.465241         2.156308
 H         4.407710         1.064907         0.126565
 H         4.135433        -2.505262        -0.395871
 H         1.468929        -2.266632        -0.453265
 H         1.987013        -1.920126         1.236878
 H         3.208981         0.907421        -2.702080
