19
Iteration:  3136
 C        -0.114743         0.205049        -0.376435
 C         1.421852         0.005000        -0.009142
 C         2.115961         0.706596         1.247418
 C         3.415507         0.423372         0.423173
 C         3.229099        -0.921988        -0.333741
 O         4.359308        -1.617223        -0.633100
 C         1.868907        -1.517927         0.180120
 C         2.654881         0.443816        -0.888848
 O         2.507234         1.164157        -2.117793
 H        -0.631397         0.017088         0.476116
 H        -0.328651         1.112474        -0.816552
 H        -0.435159        -0.437820        -1.200728
 H         1.969235         1.800135         1.430546
 H         2.048568        -0.078482         2.178595
 H         4.427976         0.599042         0.646361
 H         4.532876        -1.757884        -1.490240
 H         1.367074        -2.096958        -0.584333
 H         1.918851        -2.094195         1.101206
 H         2.900248         2.090169        -1.937371
