19
Iteration:  2632
 C        -0.101846         0.287513        -0.319897
 C         1.311229        -0.053020         0.060061
 C         2.005573         0.710555         1.181907
 C         3.323275         0.475552         0.455978
 C         3.261405        -0.846615        -0.310632
 O         4.399637        -1.588907        -0.850779
 C         1.962611        -1.539655         0.172404
 C         2.619425         0.387883        -0.801215
 O         2.644299         1.113640        -2.025554
 H        -0.859370        -0.387791         0.259066
 H        -0.362048         1.253728         0.070316
 H        -0.291678         0.153026        -1.391948
 H         1.765308         1.826272         1.233343
 H         1.883091         0.305187         2.208855
 H         4.273178         0.928913         0.777182
 H         4.148326        -2.246759        -1.466051
 H         1.512679        -2.028693        -0.726863
 H         1.900436        -2.162436         1.044782
 H         3.483737         0.931573        -2.550205
