19
Iteration:  4113
 C        -0.115000         0.165132        -0.249429
 C         1.319134         0.074572         0.079039
 C         2.043364         0.663049         1.264991
 C         3.383849         0.520106         0.505677
 C         3.150575        -0.830381        -0.326266
 O         4.310070        -1.502578        -0.849131
 C         1.852541        -1.424147         0.107884
 C         2.604123         0.451434        -0.825747
 O         2.890944         0.784350        -2.158838
 H        -0.687754        -0.443565         0.366099
 H        -0.645010         1.185893         0.013509
 H        -0.317302         0.138813        -1.361968
 H         1.827507         1.697507         1.654009
 H         1.938251         0.023936         2.153708
 H         4.386434         0.864465         0.901273
 H         4.371878        -1.059704        -1.709423
 H         1.355463        -2.017039        -0.676522
 H         1.886355        -1.955788         1.077215
 H         2.549505         1.641031        -2.270581
