19
Iteration:  1281charge 0 multiplicity 1
 C        -0.155941         0.152320        -0.151206
 C         1.336695        -0.048126         0.031496
 C         2.029888         0.770923         1.190264
 C         3.281682         0.567573         0.364321
 C         3.267396        -0.905137        -0.350875
 O         4.465447        -1.427355        -0.844212
 C         1.982625        -1.525382         0.223572
 C         2.588732         0.301937        -0.918978
 O         2.615415         0.979504        -2.161455
 H        -0.594147        -0.508249         0.587608
 H        -0.444303         1.198977         0.019162
 H        -0.486722        -0.022524        -1.187414
 H         1.819240         1.792724         1.178606
 H         2.170567         0.500111         2.277119
 H         4.364887         1.002834         0.606636
 H         4.520403        -2.342934        -0.297497
 H         1.597886        -2.354682        -0.376830
 H         2.141466        -1.729100         1.332862
 H         2.381147         1.888856        -2.032881
