19
Iteration:  3455charge 0 multiplicity 1
 C        -0.108873         0.202199        -0.226577
 C         1.351112         0.025508         0.091096
 C         2.071151         0.659798         1.292119
 C         3.361896         0.497268         0.548373
 C         3.241413        -0.790461        -0.286499
 O         4.182319        -1.526928        -0.885030
 C         1.922316        -1.426405         0.046672
 C         2.616236         0.441527        -0.812471
 O         2.848720         0.808179        -2.142477
 H        -0.762657        -0.046819         0.589886
 H        -0.348863         1.249646        -0.464358
 H        -0.223295        -0.434321        -1.213046
 H         1.722672         1.709038         1.426080
 H         1.752213         0.078451         2.144945
 H         4.318780         0.930687         0.689824
 H         4.497381        -0.993517        -1.725810
 H         1.516660        -1.962797        -0.782799
 H         1.687792        -2.034576         0.949710
 H         2.620918         1.711139        -2.307640
