19
Iteration:  3930charge 0 multiplicity 1
 C        -0.157595         0.304466        -0.219497
 C         1.291960        -0.013325         0.159620
 C         2.087236         0.666273         1.277235
 C         3.316544         0.482132         0.354968
 C         3.172506        -0.941634        -0.312827
 O         4.461699        -1.475319        -0.711109
 C         1.809311        -1.487847         0.081929
 C         2.620408         0.375353        -0.906952
 O         2.788954         0.931920        -2.168923
 H        -0.893687        -0.418709         0.477703
 H        -0.403840         1.372667         0.021997
 H        -0.206081         0.135620        -1.324492
 H         1.850052         1.640921         1.348649
 H         1.975460         0.020746         2.101771
 H         4.190048         1.100912         0.344764
 H         4.386020        -1.585687        -1.609255
 H         1.438603        -2.034940        -0.819282
 H         1.671481        -2.054112         1.015686
 H         3.039698         1.915516        -1.991142
