19
Iteration:   500
 C        -0.182208         0.205392        -0.072282
 C         1.314818         0.071337         0.101955
 C         2.159235         0.789631         1.236478
 C         3.328590         0.615670         0.316863
 C         3.243940        -0.877395        -0.281862
 O         4.297549        -1.527762        -0.921590
 C         1.907023        -1.423484         0.134638
 C         2.520062         0.276883        -0.939562
 O         2.824293         0.884801        -2.092677
 H        -0.784181        -0.535896         0.560918
 H        -0.584602         1.240252         0.113651
 H        -0.491059         0.001832        -1.081822
 H         1.712558         1.846041         1.429272
 H         2.147954         0.370113         2.330268
 H         4.326842         0.974515         0.305182
 H         5.071568        -1.994559        -0.249215
 H         1.502472        -1.980957        -0.685235
 H         1.913964        -1.869867         1.145334
 H         2.476489         0.373311        -2.907028
