19
Iteration:  1849charge 0 multiplicity 1
 C        -0.086207         0.244309        -0.366320
 C         1.334329         0.010545         0.028934
 C         2.158775         0.657824         1.274254
 C         3.307730         0.415405         0.403542
 C         3.178570        -0.918041        -0.363083
 O         4.458952        -1.421590        -0.736161
 C         1.870246        -1.570139         0.139825
 C         2.571896         0.342497        -0.858864
 O         2.602964         1.108321        -2.034195
 H        -0.778260        -0.496484         0.223508
 H        -0.425942         1.235187        -0.137491
 H        -0.201258        -0.023930        -1.406936
 H         1.898604         1.702308         1.187284
 H         2.098839         0.253859         2.262229
 H         4.402681         0.757502         0.480023
 H         4.319457        -2.292882        -1.292702
 H         1.342235        -2.075363        -0.629753
 H         1.824586        -1.972738         1.152384
 H         3.239443         1.771703        -1.913588
