19
Iteration:   933charge 0 multiplicity 1
 C        -0.149066         0.227088        -0.135499
 C         1.325161        -0.070816         0.134186
 C         2.128917         0.750233         1.231516
 C         3.344033         0.573212         0.426213
 C         3.170368        -0.790620        -0.354043
 O         4.317165        -1.529651        -0.839019
 C         1.960709        -1.519487         0.106801
 C         2.628149         0.381022        -0.891957
 O         2.717056         0.849551        -2.176448
 H        -0.786929        -0.066785         0.670807
 H        -0.229704         1.395017        -0.087333
 H        -0.506183        -0.146178        -1.221753
 H         2.020493         1.905452         1.133243
 H         2.125225         0.473351         2.235619
 H         4.324254         0.920452         0.491066
 H         5.006991        -1.058639        -0.599194
 H         1.424815        -2.166959        -0.655464
 H         2.056659        -2.109948         1.112787
 H         1.855293         1.148385        -2.349507
