19
Iteration:  4399charge 0 multiplicity 1
 C        -0.143811         0.306686        -0.265756
 C         1.314084         0.013893         0.045345
 C         2.116708         0.551191         1.240610
 C         3.360087         0.427813         0.381473
 C         3.203246        -0.873630        -0.336910
 O         4.522105        -1.533424        -0.607683
 C         1.848858        -1.482617         0.063428
 C         2.637912         0.384258        -0.912861
 O         2.543048         1.089375        -2.152884
 H        -0.571608         0.438850         0.653610
 H        -0.080183         1.376440        -0.608613
 H        -0.673520        -0.320812        -0.969519
 H         1.800651         1.647039         1.352635
 H         2.059731        -0.249125         2.083871
 H         4.338326         0.849751         0.657362
 H         4.386841        -2.378255        -0.905017
 H         1.491247        -2.051080        -0.850342
 H         1.817916        -1.976419         1.037084
 H         3.078805         1.868563        -2.169605
