19
Iteration:  2122
 C        -0.093775         0.219301        -0.262359
 C         1.342685        -0.011721         0.137659
 C         2.047542         0.689278         1.342642
 C         3.375575         0.467618         0.521295
 C         3.214665        -0.852680        -0.322161
 O         4.312130        -1.430485        -0.980943
 C         1.830797        -1.464003        -0.042199
 C         2.607390         0.378053        -0.819190
 O         2.708616         0.971141        -2.030408
 H        -0.754604         0.148943         0.600524
 H        -0.370971         1.087818        -0.840419
 H        -0.335570        -0.640857        -0.867703
 H         1.825893         1.779616         1.200042
 H         1.888306         0.267077         2.331952
 H         4.484995         0.749931         0.739045
 H         4.779160        -2.015467        -0.309962
 H         1.497343        -1.774466        -1.038859
 H         1.804184        -2.260462         0.757727
 H         3.679782         0.934815        -2.365830
