19
Iteration:   187charge 0 multiplicity 1
 C        -0.229526         0.302912        -0.174017
 C         1.352755         0.012015         0.042102
 C         2.144370         0.749983         1.219082
 C         3.436234         0.520936         0.326217
 C         3.277686        -0.885734        -0.268552
 O         4.342473        -1.525641        -0.886402
 C         1.883121        -1.439169         0.168520
 C         2.594966         0.316038        -0.882415
 O         2.594774         0.885447        -2.095056
 H        -0.676900         0.655230         0.845592
 H        -0.494384         1.062709        -0.919260
 H        -0.728234        -0.615189        -0.442575
 H         1.763603         1.738252         1.263492
 H         2.120165         0.208118         2.187869
 H         4.388870         1.096855         0.315974
 H         5.098367        -1.824404        -0.135321
 H         1.445248        -2.105741        -0.623341
 H         1.747538        -1.944749         1.117022
 H         3.554223         1.075627        -2.390905
