19
Iteration:  2415charge 0 multiplicity 1
 C        -0.116425         0.231053        -0.376275
 C         1.286370        -0.044004         0.084058
 C         2.177448         0.601359         1.263414
 C         3.349966         0.468873         0.392211
 C         3.282131        -0.902225        -0.310596
 O         4.433184        -1.536793        -0.643134
 C         1.831987        -1.495501         0.004758
 C         2.519699         0.403769        -0.840043
 O         2.628503         1.100361        -2.033890
 H        -0.734870        -0.474137         0.066063
 H        -0.411441         1.184075        -0.042913
 H        -0.231880         0.234340        -1.429620
 H         1.839655         1.600102         1.518511
 H         2.316294         0.149008         2.316718
 H         4.201972         1.068129         0.218233
 H         4.296052        -1.556998        -1.655218
 H         1.398096        -2.043464        -0.865148
 H         1.773971        -2.066919         0.965463
 H         3.325748         1.755750        -2.162909
