19
Iteration:  1883charge 0 multiplicity 1
 C        -0.064721         0.284562        -0.301224
 C         1.395215         0.035935         0.064677
 C         2.103225         0.481528         1.338500
 C         3.308410         0.531137         0.496034
 C         3.234513        -0.812308        -0.348758
 O         4.432809        -1.501083        -0.665240
 C         1.914721        -1.436771        -0.026690
 C         2.597678         0.462878        -0.839465
 O         2.522606         0.956661        -2.139124
 H        -0.808389        -0.137049         0.517969
 H        -0.312833         1.237724        -0.582716
 H        -0.256746        -0.288779        -1.234870
 H         1.798542         1.442005         1.662734
 H         2.093932        -0.181317         2.206677
 H         4.263968         0.940061         0.571092
 H         4.093451        -1.934077        -1.590780
 H         1.558735        -1.970096        -0.912417
 H         1.745925        -2.170550         0.777374
 H         3.402782         1.246278        -2.437254
