19
Iteration:  4973
 C        -0.058475         0.260320        -0.427447
 C         1.346648         0.060291        -0.006780
 C         2.086668         0.731795         1.291828
 C         3.379813         0.510036         0.424213
 C         3.288569        -0.936682        -0.280359
 O         4.352687        -1.669778        -0.749022
 C         1.833305        -1.505217         0.174540
 C         2.614775         0.433574        -0.830523
 O         2.602788         1.031724        -2.069194
 H        -0.713801        -0.356411         0.043049
 H        -0.334294         1.343015        -0.324486
 H        -0.113927        -0.058296        -1.517116
 H         1.618501         1.611989         1.739030
 H         2.147557         0.075691         2.195661
 H         4.419826         0.780967         0.625162
 H         4.359307        -1.507505        -1.660187
 H         1.539180        -2.176591        -0.620568
 H         1.809943        -2.012852         1.109207
 H         2.819197         1.885157        -1.943992
