19
Iteration:  3446charge 0 multiplicity 1
 C        -0.085098         0.228390        -0.193507
 C         1.353714         0.080066         0.017601
 C         2.008774         0.605466         1.264045
 C         3.379456         0.519085         0.558386
 C         3.268900        -0.819101        -0.233674
 O         4.290713        -1.607844        -0.911475
 C         1.865811        -1.399070         0.055837
 C         2.559034         0.551801        -0.822961
 O         2.811981         0.778288        -2.152384
 H        -0.732932        -0.301406         0.526318
 H        -0.423524         1.287712        -0.346708
 H        -0.546656        -0.388877        -1.131493
 H         1.841757         1.561264         1.534885
 H         1.911144         0.158928         2.250845
 H         4.212545         0.984247         1.057903
 H         4.603716        -1.066512        -1.771441
 H         1.534389        -1.892416        -0.833726
 H         1.824173        -1.950176         0.989556
 H         2.666734         1.699793        -2.309064
