19
Iteration:  2384
 C        -0.070687         0.301902        -0.244461
 C         1.370360        -0.044622        -0.031351
 C         2.012474         0.631239         1.199069
 C         3.357599         0.346462         0.524147
 C         3.167239        -0.919262        -0.440531
 O         4.487762        -1.421525        -0.661151
 C         1.862431        -1.533304         0.020422
 C         2.628299         0.368424        -0.885984
 O         2.642169         1.107098        -2.080446
 H        -0.593916        -0.250232         0.496766
 H        -0.229680         1.413608         0.067857
 H        -0.524231         0.017171        -1.172013
 H         1.812776         1.733755         1.169404
 H         1.960045         0.088235         2.175466
 H         4.322770         0.561157         0.876547
 H         4.372768        -2.186873        -1.156719
 H         1.280183        -2.205354        -0.557741
 H         1.928576        -1.989475         1.017938
 H         2.402311         2.071644        -2.055148
