19
Iteration:   374
 C        -0.230072         0.243187        -0.120108
 C         1.307247         0.059253         0.097966
 C         2.129011         0.752808         1.228891
 C         3.406299         0.575096         0.385849
 C         3.277341        -0.858035        -0.232874
 O         4.364371        -1.547889        -0.932226
 C         1.882785        -1.397919         0.155215
 C         2.605781         0.331071        -0.886359
 O         2.711595         0.904366        -2.167398
 H        -0.905295         0.186526         0.778010
 H        -0.456304         1.222765        -0.566173
 H        -0.589328        -0.520401        -0.914116
 H         1.932233         1.766917         1.526082
 H         2.211405         0.021459         2.158795
 H         4.411922         1.031468         0.484322
 H         4.991165        -2.018256        -0.272136
 H         1.401630        -2.037595        -0.724118
 H         1.715239        -2.020887         1.094092
 H         2.271666         0.236583        -2.825631
