19
Iteration:   501charge 0 multiplicity 1
 C        -0.186911         0.206956        -0.074156
 C         1.303589         0.069673         0.104499
 C         2.158091         0.792309         1.231191
 C         3.324237         0.606144         0.320502
 C         3.252369        -0.881106        -0.284284
 O         4.302238        -1.524307        -0.925699
 C         1.904565        -1.414495         0.131815
 C         2.527951         0.276623        -0.938467
 O         2.823872         0.880611        -2.092969
 H        -0.788122        -0.547748         0.574718
 H        -0.578304         1.216953         0.144612
 H        -0.508739         0.014532        -1.045161
 H         1.696968         1.868821         1.454538
 H         2.156743         0.357265         2.311150
 H         4.350435         0.985193         0.297286
 H         5.045359        -2.002345        -0.267338
 H         1.539872        -1.975690        -0.642694
 H         1.872388        -1.828681         1.153641
 H         2.527868         0.371175        -2.888471
