19
Iteration:  2646charge 0 multiplicity 1
 C        -0.098323         0.199455        -0.290548
 C         1.352000        -0.065699         0.092927
 C         2.090968         0.744840         1.240650
 C         3.443552         0.534060         0.523302
 C         3.218428        -0.899677        -0.334698
 O         4.324410        -1.518208        -0.770135
 C         1.911668        -1.521619        -0.045465
 C         2.575361         0.419542        -0.829525
 O         2.624454         1.038777        -2.015702
 H        -0.911496        -0.428051         0.265269
 H        -0.259579         1.361912        -0.289044
 H        -0.239993         0.030569        -1.366212
 H         1.759757         1.725166         1.065656
 H         1.908866         0.512422         2.276714
 H         4.453273         1.057084         0.549668
 H         3.945312        -2.276831        -1.333562
 H         1.505590        -2.077075        -0.903403
 H         1.872534        -2.145100         0.895714
 H         3.594139         1.013783        -2.162126
