19
Iteration:   577
 C        -0.165796         0.285472        -0.207137
 C         1.333249         0.015473         0.033221
 C         2.182407         0.714538         1.253140
 C         3.422277         0.589667         0.353143
 C         3.289862        -0.850009        -0.214459
 O         4.335352        -1.541648        -0.903705
 C         1.825602        -1.422491         0.153365
 C         2.590962         0.370869        -0.859398
 O         2.560947         0.852495        -2.112621
 H        -0.906854        -0.052545         0.648216
 H        -0.463689         1.333035        -0.431949
 H        -0.421562        -0.280437        -1.053235
 H         2.017784         1.786396         1.479011
 H         2.340274         0.158131         2.235778
 H         4.482352         0.977160         0.525458
 H         5.018147        -1.564432        -0.317955
 H         1.594158        -2.062606        -0.725278
 H         1.821768        -2.056543         1.134159
 H         3.160217         0.377845        -2.686646
