19
Iteration:  3532charge 0 multiplicity 1
 C        -0.080821         0.284278        -0.224489
 C         1.320370        -0.039902         0.088649
 C         2.082956         0.638872         1.226996
 C         3.412210         0.497865         0.402188
 C         3.253225        -0.885958        -0.374886
 O         4.383061        -1.609718        -0.635749
 C         1.857630        -1.508828         0.031239
 C         2.633304         0.416756        -0.885568
 O         2.583724         1.106822        -2.121832
 H        -0.706427        -0.055376         0.541263
 H        -0.121551         1.347428        -0.380492
 H        -0.278864        -0.153943        -1.237403
 H         1.675936         1.740894         1.169038
 H         2.024990         0.004187         2.144399
 H         4.396395         0.986472         0.553123
 H         4.119452        -2.270839        -1.202053
 H         1.477932        -2.099945        -0.807737
 H         1.837856        -2.180816         0.952429
 H         3.094330         1.921453        -2.079989
