19
Iteration:  2604
 C        -0.104516         0.270895        -0.335686
 C         1.266202        -0.039059         0.010041
 C         2.080147         0.607266         1.216063
 C         3.382896         0.403609         0.428088
 C         3.235159        -0.873490        -0.370236
 O         4.388243        -1.499231        -0.737488
 C         1.893615        -1.485036         0.231382
 C         2.596522         0.367567        -0.907221
 O         2.693622         1.156089        -2.014979
 H        -0.751107        -0.450104         0.125321
 H        -0.353065         1.332096         0.054495
 H        -0.334711         0.276546        -1.394146
 H         1.798663         1.604094         1.546158
 H         1.943047         0.043530         2.175104
 H         4.360523         0.966235         0.502670
 H         4.454072        -1.790831        -1.591518
 H         1.368593        -2.188378        -0.424644
 H         1.932907        -1.849386         1.316479
 H         2.809790         0.563168        -2.837477
