19
Iteration:   319
 C        -0.289310         0.282239        -0.035845
 C         1.304883         0.041036         0.061282
 C         2.090710         0.782071         1.227110
 C         3.362028         0.531305         0.442650
 C         3.220728        -0.881685        -0.256671
 O         4.326478        -1.493372        -1.010106
 C         1.885734        -1.449506         0.218461
 C         2.602240         0.323008        -0.920233
 O         2.806874         0.859918        -2.219407
 H        -0.671303        -0.668894         0.484428
 H        -0.604465         1.185850         0.479724
 H        -0.822740         0.193104        -1.057701
 H         1.977165         1.888075         1.131224
 H         2.213950         0.545290         2.452812
 H         4.279390         1.018610         0.332487
 H         5.112263        -1.746797        -0.377186
 H         1.486606        -2.177189        -0.615220
 H         1.887735        -1.912057         1.216082
 H         3.614487         0.300200        -2.534786
