19
Iteration:  4972charge 0 multiplicity 1
 C        -0.058886         0.257845        -0.430921
 C         1.355453         0.055410        -0.000469
 C         2.090308         0.733598         1.290402
 C         3.378374         0.520184         0.421848
 C         3.280185        -0.929256        -0.275585
 O         4.351266        -1.673962        -0.745480
 C         1.834248        -1.502728         0.161324
 C         2.615817         0.431793        -0.831333
 O         2.601891         1.030891        -2.066847
 H        -0.660808        -0.392483         0.072476
 H        -0.340688         1.313002        -0.326162
 H        -0.117420        -0.042081        -1.485952
 H         1.619271         1.651287         1.742107
 H         2.133061         0.042091         2.189045
 H         4.441000         0.775837         0.609751
 H         4.364629        -1.535373        -1.657459
 H         1.506151        -2.177042        -0.627953
 H         1.774739        -2.028656         1.093263
 H         2.818318         1.906568        -1.935223
