19
Iteration:  2720
 C         0.003047         0.414383        -0.193080
 C         1.323746        -0.165702         0.105424
 C         2.000211         0.643247         1.163908
 C         3.300210         0.552288         0.395360
 C         3.258227        -0.886961        -0.327163
 O         4.468331        -1.525223        -0.667544
 C         1.861479        -1.644365         0.019355
 C         2.510067         0.337102        -0.940278
 O         2.685697         1.046631        -2.060311
 H        -0.712595         0.322321         0.682417
 H         0.047953         1.447905        -0.451480
 H        -0.458866        -0.149479        -0.951730
 H         1.532395         1.743478         1.241793
 H         1.908291         0.347064         2.291775
 H         4.342253         1.019278         0.307502
 H         4.435269        -1.640590        -1.576422
 H         1.514456        -2.169879        -0.904384
 H         1.848860        -2.294153         0.872854
 H         2.733876         2.052044        -1.847765
