19
Iteration:  2539
 C        -0.176246         0.309410        -0.187931
 C         1.369904        -0.050130        -0.095947
 C         2.008838         0.578418         1.197859
 C         3.400345         0.442895         0.539647
 C         3.271363        -0.799285        -0.340804
 O         4.437360        -1.569929        -0.634312
 C         1.906825        -1.478885        -0.013210
 C         2.653145         0.457698        -0.878548
 O         2.654001         1.034311        -2.151443
 H        -0.521758         0.165566         0.760948
 H        -0.457136         1.369369        -0.470884
 H        -0.716839        -0.375008        -0.804111
 H         1.672577         1.661888         1.457809
 H         1.883953        -0.186136         2.084090
 H         4.447784         0.817925         0.859125
 H         4.161734        -1.941966        -1.412860
 H         1.750293        -2.256954        -0.743734
 H         1.835600        -1.945847         1.001272
 H         2.019074         1.770404        -2.118723
