19
Iteration:  4496charge 0 multiplicity 1
 C        -0.080248         0.208951        -0.380734
 C         1.300084        -0.103370         0.062651
 C         2.039758         0.723345         1.325069
 C         3.418550         0.500526         0.452541
 C         3.205845        -0.837811        -0.285556
 O         4.311577        -1.468463        -0.852733
 C         1.882923        -1.516080         0.172282
 C         2.521693         0.420516        -0.839362
 O         2.789057         1.059261        -2.050785
 H        -0.865095        -0.426393         0.242086
 H        -0.258999         1.326378        -0.346120
 H        -0.098675        -0.117468        -1.439847
 H         1.980085         1.882158         1.324738
 H         2.118667         0.080543         2.215883
 H         4.387564         1.033802         0.576039
 H         4.091722        -2.311887        -1.295076
 H         1.430568        -2.247061        -0.614166
 H         2.008199        -1.910978         1.205652
 H         2.868631         0.526679        -2.792889
