19
Iteration:   940charge 0 multiplicity 1
 C        -0.088808         0.284659        -0.186254
 C         1.321959        -0.090045         0.162915
 C         2.081427         0.782796         1.208604
 C         3.388436         0.555302         0.481025
 C         3.238381        -0.860535        -0.349687
 O         4.299696        -1.469806        -0.869236
 C         1.927130        -1.540715         0.147426
 C         2.548428         0.364054        -0.870641
 O         2.713154         0.845302        -2.207517
 H        -0.716687        -0.135543         0.673391
 H        -0.074487         1.328841        -0.164142
 H        -0.488298        -0.128480        -1.041763
 H         1.856315         1.853049         1.245198
 H         2.152793         0.289580         2.276722
 H         4.450904         0.993960         0.451491
 H         5.075797        -0.985537        -0.601013
 H         1.390352        -2.107201        -0.568303
 H         2.038106        -2.162897         1.037628
 H         1.841904         1.122630        -2.513782
