19
Iteration:  2226charge 0 multiplicity 1
 C        -0.171166         0.162963        -0.319443
 C         1.408088         0.076542         0.012835
 C         2.155569         0.585400         1.312563
 C         3.434047         0.420698         0.427026
 C         3.252952        -0.888625        -0.402076
 O         4.375448        -1.706895        -0.601838
 C         1.899735        -1.383602        -0.064163
 C         2.612405         0.487533        -0.874007
 O         2.535100         1.139124        -2.108991
 H        -0.667436        -0.667996         0.295339
 H        -0.766394         1.149141        -0.192258
 H        -0.362243        -0.123724        -1.388069
 H         1.885215         1.619983         1.564109
 H         1.984080         0.059967         2.338844
 H         4.349735         0.829131         0.701143
 H         5.323469        -1.296561        -0.451445
 H         1.401097        -1.947558        -0.920669
 H         1.792818        -1.979139         0.870261
 H         2.128784         1.937007        -1.864458
