19
Iteration:   549
 C        -0.110266         0.213843        -0.023097
 C         1.366165        -0.009599         0.077240
 C         2.057707         0.822717         1.234081
 C         3.331762         0.544596         0.411700
 C         3.191001        -0.836415        -0.322843
 O         4.252827        -1.459776        -0.933635
 C         1.886558        -1.457789         0.160305
 C         2.612873         0.343135        -0.922240
 O         2.753814         0.808083        -2.193856
 H        -0.716732        -0.400810         0.603890
 H        -0.272388         1.255135         0.199416
 H        -0.526133         0.071149        -1.091679
 H         2.022512         1.953753         1.310069
 H         2.022982         0.506799         2.258884
 H         4.317726         0.985573         0.531692
 H         4.666409        -1.918457        -0.221460
 H         1.446606        -1.844699        -0.766101
 H         2.067838        -2.081851         1.004430
 H         3.563456         0.484216        -2.487621
