19
Iteration:  4974
 C        -0.056705         0.264674        -0.426307
 C         1.339028         0.063558        -0.011089
 C         2.083250         0.727991         1.293290
 C         3.381489         0.500691         0.427340
 C         3.293797        -0.942495        -0.284506
 O         4.354216        -1.665730        -0.750831
 C         1.834265        -1.505763         0.185723
 C         2.613800         0.433290        -0.830130
 O         2.603149         1.029558        -2.072052
 H        -0.785637        -0.338008         0.032726
 H        -0.329573         1.365627        -0.325091
 H        -0.111253        -0.068195        -1.540208
 H         1.623244         1.583581         1.728342
 H         2.158586         0.107204         2.198382
 H         4.398207         0.790069         0.639168
 H         4.356602        -1.478170        -1.689738
 H         1.565305        -2.177808        -0.617992
 H         1.841367        -1.999778         1.136349
 H         2.832956         1.915822        -1.947545
