19
Iteration:   496
 C        -0.168522         0.205184        -0.070011
 C         1.354201         0.063417         0.097803
 C         2.154083         0.781655         1.261377
 C         3.339143         0.636467         0.302121
 C         3.212159        -0.859094        -0.277211
 O         4.291233        -1.547230        -0.896037
 C         1.914714        -1.456728         0.150676
 C         2.502864         0.286665        -0.931808
 O         2.818927         0.900967        -2.109203
 H        -0.733209        -0.458643         0.512280
 H        -0.558992         1.249479         0.012539
 H        -0.408339        -0.054315        -1.201619
 H         1.820028         1.760630         1.286878
 H         2.134652         0.409308         2.267564
 H         4.361534         1.013343         0.341668
 H         4.923107        -1.820024        -0.327959
 H         1.374051        -2.015615        -0.774641
 H         2.007828        -2.055671         1.091444
 H         2.352045         0.454282        -2.827663
