19
Iteration:   536charge 0 multiplicity 1
 C        -0.135173         0.235368         0.006491
 C         1.317157        -0.002261         0.100658
 C         2.084677         0.826820         1.169712
 C         3.354796         0.505456         0.451962
 C         3.167188        -0.839313        -0.314449
 O         4.222134        -1.420788        -0.924069
 C         1.944314        -1.491952         0.135010
 C         2.611204         0.386123        -0.928185
 O         2.801241         0.846130        -2.248559
 H        -0.580214        -0.579584         0.665304
 H        -0.439422         1.154913         0.448004
 H        -0.523408         0.125158        -0.979419
 H         1.632504         1.908710         1.017727
 H         1.974205         0.426108         2.207415
 H         4.433991         0.662446         0.764569
 H         4.701139        -2.172955        -0.282085
 H         1.595665        -2.278391        -0.396230
 H         1.835071        -1.783022         1.172989
 H         3.597478         0.327556        -2.632410
