19
Iteration:  4391
 C        -0.160548         0.334543        -0.254115
 C         1.369559        -0.002736         0.017742
 C         2.087587         0.596881         1.200020
 C         3.410207         0.455760         0.390315
 C         3.246548        -0.915173        -0.329709
 O         4.483297        -1.500388        -0.618550
 C         1.859181        -1.505570         0.044533
 C         2.578304         0.372267        -0.889226
 O         2.568570         1.059516        -2.132861
 H        -0.919973         0.288825         0.657313
 H        -0.276499         1.394641        -0.756431
 H        -0.499431        -0.322755        -1.106582
 H         1.973519         1.507744         1.711962
 H         2.042991         0.049998         2.109040
 H         4.476234         0.741044         0.469166
 H         4.328453        -2.318298        -0.991602
 H         1.305781        -2.110929        -0.670328
 H         1.818835        -2.092280         0.990706
 H         2.968660         1.916696        -1.850897
