19
Iteration:  4625charge 0 multiplicity 1
 C        -0.110056         0.283421        -0.367600
 C         1.368183        -0.027207         0.037978
 C         2.038689         0.638363         1.246130
 C         3.335080         0.497423         0.529924
 C         3.197960        -0.874759        -0.346986
 O         4.357090        -1.638022        -0.786463
 C         1.928592        -1.515002         0.078721
 C         2.623119         0.452794        -0.816913
 O         2.732923         1.116717        -2.040440
 H        -0.744847         0.345423         0.609106
 H        -0.306399         1.225790        -0.813345
 H        -0.424924        -0.564256        -0.946215
 H         1.635548         1.655820         1.440328
 H         1.758782         0.247904         2.274094
 H         4.346133         0.782851         0.806481
 H         4.739205        -1.133148        -1.535182
 H         1.571093        -2.290003        -0.604035
 H         1.819995        -1.839273         1.116604
 H         2.328934         0.481578        -2.752248
