19
Iteration:  4142
 C        -0.125647         0.220700        -0.357064
 C         1.307238        -0.090225         0.075378
 C         2.083592         0.768611         1.275792
 C         3.388869         0.574752         0.434357
 C         3.215804        -0.871801        -0.265270
 O         4.306560        -1.623881        -0.845477
 C         1.908780        -1.487157         0.123252
 C         2.576985         0.329387        -0.839477
 O         2.748632         0.967820        -2.072660
 H        -0.977776        -0.162873         0.294225
 H        -0.264052         1.294192        -0.113978
 H        -0.352655         0.050725        -1.418878
 H         1.741762         1.812077         1.160699
 H         2.131777         0.389404         2.378670
 H         4.343760         1.035888         0.573098
 H         4.507177        -0.910635        -1.617841
 H         1.527117        -2.195919        -0.595755
 H         1.843636        -1.983478         1.107690
 H         3.084676         1.850620        -1.745542
