19
Iteration:  3493
 C        -0.099134         0.304934        -0.256024
 C         1.306920        -0.002535         0.106731
 C         2.006440         0.704420         1.220935
 C         3.365080         0.415480         0.457245
 C         3.198974        -0.932428        -0.334926
 O         4.399072        -1.474508        -0.903973
 C         1.855190        -1.469534         0.197400
 C         2.551053         0.306202        -0.868053
 O         2.804326         0.949169        -2.035974
 H        -0.957027         0.008896         0.425966
 H        -0.163001         1.312950        -0.734858
 H        -0.426458        -0.412379        -1.057119
 H         1.891971         1.727379         1.334249
 H         1.906989         0.321084         2.250508
 H         4.310768         1.004104         0.353163
 H         4.380228        -1.416883        -1.951680
 H         1.415315        -2.077483        -0.635010
 H         1.863017        -1.842577         1.205976
 H         3.049924         1.882783        -1.732282
