19
Iteration:   931
 C        -0.161284         0.218459        -0.126988
 C         1.329086        -0.056874         0.121829
 C         2.143495         0.746124         1.233447
 C         3.330075         0.567249         0.394269
 C         3.160178        -0.786721        -0.350999
 O         4.317834        -1.548779        -0.830607
 C         1.967204        -1.512243         0.096212
 C         2.641754         0.388029        -0.896128
 O         2.718037         0.851764        -2.166721
 H        -0.859145        -0.089657         0.692899
 H        -0.300550         1.328639        -0.104061
 H        -0.481288        -0.116411        -1.154222
 H         1.984425         1.883611         1.131172
 H         2.085739         0.498848         2.327782
 H         4.362974         0.946974         0.550180
 H         5.079892        -1.045653        -0.584645
 H         1.497880        -2.135790        -0.653532
 H         2.040674        -2.062905         1.114980
 H         1.827470         1.195402        -2.335152
