19
Iteration:  2753
 C        -0.144785         0.301369        -0.334176
 C         1.320870         0.062821         0.007312
 C         2.080368         0.671321         1.264862
 C         3.469470         0.346864         0.481992
 C         3.187690        -0.834634        -0.335820
 O         4.440020        -1.469752        -0.760131
 C         1.894521        -1.527845         0.096905
 C         2.614912         0.400035        -0.839296
 O         2.664043         0.975635        -2.071696
 H        -0.763537        -0.158500         0.477824
 H        -0.550206         1.241046        -0.541057
 H        -0.344738        -0.370671        -1.105951
 H         1.819948         1.832932         1.419192
 H         1.724550         0.070150         2.189019
 H         4.458122         0.721903         0.733640
 H         4.281492        -2.071697        -1.638191
 H         1.373459        -2.124610        -0.679257
 H         1.910827        -2.021891         1.055940
 H         2.096339         1.780751        -2.005363
