19
Iteration:  3383charge 0 multiplicity 1
 C        -0.144077         0.350789        -0.221230
 C         1.286999        -0.044612         0.059409
 C         2.106403         0.620479         1.246439
 C         3.380814         0.465923         0.345364
 C         3.172126        -0.944960        -0.419048
 O         4.471571        -1.418198        -0.664387
 C         1.817237        -1.543542         0.079396
 C         2.572578         0.313025        -0.898699
 O         2.743326         1.031746        -2.109899
 H        -0.939929        -0.215168         0.310277
 H        -0.198643         1.379853         0.141447
 H        -0.247216         0.243008        -1.251751
 H         1.784953         1.829916         1.301772
 H         2.114739         0.185320         2.352093
 H         4.354665         0.918616         0.490124
 H         4.473030        -2.391953        -1.102666
 H         1.236740        -2.230847        -0.620228
 H         1.867952        -2.043463         1.064862
 H         2.552865         1.932033        -1.904307
