19
Iteration:  2756charge 0 multiplicity 1
 C        -0.129310         0.277353        -0.332251
 C         1.330579         0.087375         0.014876
 C         2.071250         0.644754         1.289381
 C         3.468364         0.350419         0.487820
 C         3.181381        -0.841426        -0.367120
 O         4.420539        -1.480114        -0.767250
 C         1.896263        -1.502751         0.109348
 C         2.624754         0.438415        -0.812272
 O         2.664917         0.965959        -2.103053
 H        -0.690122        -0.239941         0.526760
 H        -0.653748         1.280028        -0.641850
 H        -0.260681        -0.383684        -1.226471
 H         1.857191         1.704315         1.353954
 H         1.753956         0.070724         2.176768
 H         4.391306         0.697259         0.812039
 H         4.259029        -1.990972        -1.515109
 H         1.401447        -2.131808        -0.602071
 H         1.897184        -2.014427         1.102306
 H         2.104916         1.818325        -2.041763
