19
Iteration:   148
 C        -0.137731         0.167767        -0.006097
 C         1.347492         0.011029         0.083212
 C         2.068899         0.772938         1.221368
 C         3.387288         0.568732         0.429822
 C         3.144840        -0.865999        -0.398131
 O         4.212073        -1.464007        -0.877294
 C         1.949038        -1.433921         0.084465
 C         2.585110         0.442086        -0.868109
 O         2.819488         0.815853        -2.210510
 H        -0.518898         0.127911         0.970656
 H        -0.389927         1.137516        -0.445948
 H        -0.693968        -0.665588        -0.621337
 H         1.721333         1.874839         1.029353
 H         1.986368         0.610547         2.334235
 H         4.305776         1.068833         0.480677
 H         4.553243        -2.128935        -0.235082
 H         1.404813        -2.000080        -0.697645
 H         2.093744        -1.939496         1.069503
 H         3.625363         0.366905        -2.355201
