19
Iteration:  4846charge 0 multiplicity 1
 C        -0.076843         0.247440        -0.359180
 C         1.336586         0.039489        -0.019840
 C         2.070518         0.649009         1.301034
 C         3.353621         0.422271         0.567760
 C         3.235727        -0.862387        -0.270395
 O         4.304819        -1.502969        -0.846601
 C         1.827235        -1.415508         0.041754
 C         2.630999         0.413257        -0.742396
 O         2.763416         0.878103        -2.084907
 H        -0.518639         0.157695         0.675840
 H        -0.341904         1.098790        -0.914834
 H        -0.270795        -0.607778        -0.943070
 H         1.833352         1.759805         1.350847
 H         2.044789        -0.070467         2.178169
 H         4.282665         0.938359         0.735212
 H         4.366999        -1.013159        -1.654250
 H         1.495765        -1.994130        -0.890569
 H         1.430534        -1.956197         1.006990
 H         2.790837         1.784410        -2.164884
