19
Iteration:  3858charge 0 multiplicity 1
 C        -0.193783         0.279189        -0.239224
 C         1.312307        -0.013582         0.074007
 C         2.061047         0.628986         1.318166
 C         3.364240         0.547746         0.463232
 C         3.200587        -0.848180        -0.342566
 O         4.328229        -1.448651        -0.791491
 C         1.865912        -1.486015         0.017211
 C         2.604795         0.450869        -0.824556
 O         2.871230         0.787676        -2.108604
 H        -0.821788         0.101611         0.617743
 H        -0.409693         1.321175        -0.568894
 H        -0.445713        -0.319387        -1.105966
 H         1.917392         1.803379         1.507402
 H         2.206432        -0.049109         2.245791
 H         4.368869         0.925141         0.531686
 H         4.247716        -1.598309        -1.684191
 H         1.298852        -2.018197        -0.745182
 H         1.933192        -2.057236         0.965911
 H         2.674565         1.781595        -2.258304
