19
Iteration:  4070charge 0 multiplicity 1
 C        -0.181275         0.317771        -0.115919
 C         1.309509        -0.053155        -0.022071
 C         2.064989         0.633318         1.205394
 C         3.358050         0.513376         0.437219
 C         3.242210        -0.874441        -0.229519
 O         4.395896        -1.393054        -0.725823
 C         1.880832        -1.469340        -0.044347
 C         2.544350         0.423403        -0.837210
 O         2.810671         0.791790        -2.092769
 H        -0.748018        -0.025379         0.696598
 H        -0.285268         1.408569        -0.002127
 H        -0.578767         0.016855        -1.104318
 H         1.764000         1.812277         1.030182
 H         2.051320        -0.153601         2.084004
 H         4.419023         0.846020         0.529479
 H         4.134507        -1.771006        -1.722484
 H         1.501165        -1.977794        -0.960776
 H         1.587108        -2.168301         0.751692
 H         2.969511         1.766499        -2.223402
