19
Iteration:  2200
 C        -0.051189         0.192790        -0.247259
 C         1.430807        -0.058359         0.053090
 C         2.129408         0.678618         1.226344
 C         3.381820         0.523515         0.396842
 C         3.212632        -0.907439        -0.287998
 O         4.294113        -1.656376        -0.665556
 C         1.876354        -1.473327        -0.156579
 C         2.618196         0.393281        -0.833147
 O         2.620007         1.162523        -2.031952
 H        -0.770785        -0.472472         0.271465
 H        -0.352418         1.132134         0.014924
 H        -0.230012        -0.012796        -1.309438
 H         1.725685         1.764412         1.222529
 H         2.062226         0.269845         2.250538
 H         4.355935         1.007905         0.773822
 H         5.254245        -1.196545        -0.498448
 H         1.510074        -1.846946        -1.091927
 H         1.662155        -2.282024         0.597884
 H         1.719074         1.375976        -2.187779
