19
Iteration:  3665
 C        -0.109873         0.175558        -0.260262
 C         1.296083         0.036191         0.061781
 C         2.048381         0.615980         1.279469
 C         3.389037         0.478031         0.590908
 C         3.183236        -0.835475        -0.285644
 O         4.244204        -1.398062        -0.960023
 C         1.866164        -1.381348         0.061683
 C         2.625136         0.452622        -0.781520
 O         2.872642         0.730242        -2.146864
 H        -0.819788         0.096679         0.606986
 H        -0.340479         1.162593        -0.593092
 H        -0.366455        -0.454572        -1.134369
 H         1.784892         1.793435         1.628217
 H         1.993423         0.022056         2.292258
 H         4.380427         0.608146         0.932230
 H         4.538269        -0.801553        -1.796941
 H         1.210310        -2.085559        -0.470949
 H         1.821826        -1.810735         1.102518
 H         3.089021         1.676850        -2.163311
