19
Iteration:   406charge 0 multiplicity 1
 C         0.013109         0.287211        -0.207553
 C         1.397870        -0.034766         0.068168
 C         2.151592         0.830768         1.178466
 C         3.395298         0.474508         0.376792
 C         3.198756        -0.915581        -0.317728
 O         4.317053        -1.584973        -0.757311
 C         1.946340        -1.594303         0.171561
 C         2.562164         0.343999        -0.914268
 O         2.458593         1.130203        -2.114377
 H        -0.620344         0.627606         0.665075
 H         0.092731         1.078910        -0.947358
 H        -0.547397        -0.522099        -0.742947
 H         1.761922         1.838797         1.233838
 H         2.121597         0.427050         2.149538
 H         4.464340         0.778775         0.223202
 H         4.737299        -1.824264         0.112719
 H         1.461835        -2.290932        -0.615635
 H         2.308474        -2.082885         1.143944
 H         2.554192         0.578656        -2.846591
