19
Iteration:  3559charge 0 multiplicity 1
 C        -0.118535         0.287481        -0.218548
 C         1.312858         0.046633         0.005174
 C         2.222545         0.664534         1.299524
 C         3.383069         0.467563         0.317486
 C         3.270682        -0.901048        -0.376937
 O         4.416376        -1.640630        -0.458958
 C         1.843119        -1.504868        -0.101832
 C         2.552058         0.404101        -0.924344
 O         2.535611         1.110933        -2.095063
 H        -0.676526        -0.484277         0.501479
 H        -0.265066         1.425137        -0.218207
 H        -0.310260        -0.070649        -1.364149
 H         1.986695         1.636031         1.554709
 H         2.366966        -0.063595         2.107690
 H         4.373119         0.875135         0.326739
 H         4.319091        -2.234565        -1.128067
 H         1.620438        -2.020386        -1.075418
 H         1.747089        -2.146664         0.755202
 H         2.749239         2.018153        -1.897452
