19
Iteration:  4147
 C        -0.120023         0.260879        -0.348703
 C         1.307482        -0.114166         0.105267
 C         2.081830         0.809774         1.238361
 C         3.355142         0.591061         0.445816
 C         3.211304        -0.903224        -0.319096
 O         4.332328        -1.646326        -0.841292
 C         1.934878        -1.525181         0.144676
 C         2.584633         0.344701        -0.842250
 O         2.718613         0.997438        -2.043691
 H        -0.887639        -0.244597         0.208864
 H        -0.160043         1.382891        -0.195396
 H        -0.354442        -0.105066        -1.389003
 H         1.789936         1.891151         1.197037
 H         1.972899         0.324463         2.171273
 H         4.376568         1.031407         0.641706
 H         4.516349        -1.071609        -1.513555
 H         1.460069        -2.154572        -0.654606
 H         1.831299        -2.042511         1.106254
 H         3.112365         1.821303        -1.803583
