19
Iteration:  3009charge 0 multiplicity 1
 C        -0.128330         0.180165        -0.250726
 C         1.409021         0.099934         0.018513
 C         2.067706         0.655175         1.335771
 C         3.369588         0.535006         0.497711
 C         3.226776        -0.795099        -0.288105
 O         4.255095        -1.579022        -0.770009
 C         1.900373        -1.398998        -0.027072
 C         2.630681         0.440562        -0.811436
 O         2.718942         0.835327        -2.156829
 H        -0.479553        -0.670214         0.427549
 H        -0.713965         1.080277         0.084988
 H        -0.269468        -0.249089        -1.171589
 H         1.847410         1.783731         1.419449
 H         1.965835        -0.011143         2.338415
 H         4.300228         1.008701         0.567958
 H         4.341127        -1.341602        -1.640469
 H         1.634957        -1.971203        -0.911142
 H         1.701007        -1.985292         0.898508
 H         3.113828         1.680014        -2.183073
