19
Iteration:   118
 C        -0.208148         0.222981        -0.093809
 C         1.303856         0.009659         0.101095
 C         2.103267         0.748529         1.223575
 C         3.381525         0.596839         0.320859
 C         3.263685        -0.916077        -0.198630
 O         4.316298        -1.492513        -0.916417
 C         1.866613        -1.393616         0.195116
 C         2.599432         0.274360        -0.885005
 O         2.826153         0.917030        -2.203831
 H        -0.859727        -0.397282         0.725415
 H        -0.488000         1.305015         0.030595
 H        -0.574048        -0.092898        -1.070755
 H         1.712604         1.826410         1.209755
 H         2.130211         0.366090         2.319422
 H         4.289253         1.161154         0.239214
 H         4.982410        -1.837400        -0.444157
 H         1.471540        -1.972900        -0.603889
 H         1.640392        -1.969948         1.149740
 H         2.436589         0.340077        -2.901400
