19
Iteration:  2729charge 0 multiplicity 1
 C        -0.039068         0.382232        -0.227374
 C         1.296657        -0.169915         0.071209
 C         2.059205         0.666460         1.224153
 C         3.286203         0.485913         0.327556
 C         3.242091        -0.916589        -0.291906
 O         4.480036        -1.489119        -0.713926
 C         1.865764        -1.558086         0.037087
 C         2.577458         0.293270        -0.871152
 O         2.694005         1.044100        -2.044095
 H        -0.708171         0.317962         0.595931
 H         0.049153         1.383960        -0.428386
 H        -0.529202        -0.134555        -1.055835
 H         1.606204         1.715302         0.915158
 H         2.028844         0.496066         2.358543
 H         4.141748         1.172813         0.589180
 H         4.438625        -1.770910        -1.586393
 H         1.478962        -1.985136        -0.936990
 H         1.642729        -2.213595         0.869180
 H         2.352075         1.958058        -1.725724
