19
Iteration:  2996charge 0 multiplicity 1
 C        -0.102227         0.137978        -0.258598
 C         1.336949         0.083842        -0.017367
 C         2.016704         0.661227         1.278367
 C         3.385187         0.597753         0.544882
 C         3.289367        -0.831545        -0.282163
 O         4.302589        -1.688863        -0.809007
 C         1.908875        -1.342068         0.059600
 C         2.708774         0.469153        -0.844031
 O         2.632774         0.888236        -2.140244
 H        -0.572413        -0.604743         0.570957
 H        -0.525178         1.155431        -0.082213
 H        -0.544618        -0.038438        -1.243944
 H         1.652194         1.673026         1.656176
 H         1.899198        -0.037563         2.110093
 H         4.390068         0.787285         0.973627
 H         4.567603        -1.354281        -1.813251
 H         1.478190        -1.919821        -0.764955
 H         1.753450        -1.886403         1.035915
 H         3.148712         1.743255        -2.327960
