19
Iteration:  3353charge 0 multiplicity 1
 C        -0.083068         0.252974        -0.312907
 C         1.333398         0.011261        -0.019280
 C         2.051502         0.620161         1.251505
 C         3.435582         0.473200         0.457623
 C         3.308643        -0.894278        -0.306081
 O         4.368176        -1.663196        -0.710174
 C         1.936395        -1.461444         0.095079
 C         2.611348         0.437202        -0.864503
 O         2.550367         1.107571        -2.112602
 H        -0.745334        -0.268285         0.433237
 H        -0.146747         1.347500        -0.317629
 H        -0.376454        -0.176714        -1.270714
 H         1.739818         1.672611         1.367935
 H         1.801759         0.322701         2.228230
 H         4.411599         1.032189         0.526984
 H         4.012205        -2.288720        -1.272668
 H         1.535277        -2.169709        -0.691922
 H         1.891241        -1.855735         1.129090
 H         2.793003         2.031750        -1.889664
