19
Iteration:  2542charge 0 multiplicity 1
 C        -0.167343         0.316838        -0.187774
 C         1.361149        -0.044949        -0.097636
 C         2.004707         0.591624         1.210804
 C         3.419266         0.448389         0.520761
 C         3.271984        -0.810583        -0.313338
 O         4.449095        -1.575127        -0.630655
 C         1.901349        -1.470575        -0.037452
 C         2.648960         0.462087        -0.864484
 O         2.650815         1.030874        -2.137094
 H        -0.554345         0.146240         0.833538
 H        -0.494159         1.300224        -0.396989
 H        -0.625700        -0.454057        -0.890655
 H         1.660242         1.655550         1.354720
 H         1.923957        -0.138840         1.973093
 H         4.408813         0.764638         0.871759
 H         4.104166        -1.967685        -1.488270
 H         1.713715        -2.284482        -0.756360
 H         1.816513        -1.938046         0.902493
 H         1.916068         1.742972        -2.193189
