19
Iteration:  4188charge 0 multiplicity 1
 C        -0.077182         0.227878        -0.358493
 C         1.334879        -0.007110        -0.015478
 C         2.141210         0.656727         1.166382
 C         3.399781         0.406833         0.418023
 C         3.262328        -0.895258        -0.292082
 O         4.377714        -1.617976        -0.630514
 C         1.882126        -1.481866         0.154510
 C         2.617051         0.405529        -0.875703
 O         2.518883         1.157946        -2.065216
 H        -0.758727         0.299370         0.466951
 H        -0.189969         1.311645        -0.791316
 H        -0.494090        -0.498228        -1.130922
 H         2.041411         1.705498         1.323489
 H         2.098357         0.062631         2.109439
 H         4.457020         0.754129         0.636436
 H         4.441930        -1.985231        -1.637318
 H         1.493413        -2.118466        -0.633037
 H         1.737641        -2.020510         1.092452
 H         2.838177         2.124877        -1.967366
