19
Iteration:   265
 C         4.390188        -1.881730         0.665943
 C         3.343342        -0.760021         0.467835
 O         2.180372        -1.424632        -0.042653
 C         1.542684        -0.123886        -0.057436
 C         0.021244         0.164724         0.221758
 C         2.206196         0.725791        -1.111355
 C         3.474082         0.713878        -0.211404
 C         2.627391         0.428039         0.916027
 O         2.456380         0.794509         2.286296
 H         3.938282        -2.703005         1.242989
 H         4.596386        -2.274352        -0.321555
 H         5.210822        -1.548063         1.271660
 H        -0.012979         0.998221         0.929835
 H        -0.332037         0.487756        -0.706384
 H        -0.485195        -0.680383         0.615376
 H         2.092538         0.492696        -2.181107
 H         1.872749         1.912725        -0.993572
 H         4.577123         1.061202        -0.278823
 H         1.859443         1.558101         2.262643
