19
Iteration:  4126
 C         4.244921        -1.814430         1.029183
 C         3.310612        -0.801424         0.495013
 O         2.037777        -1.472369         0.081088
 C         1.422272        -0.088386         0.066300
 C         0.023827        -0.080377         0.533617
 C         2.134126         0.499913        -1.288204
 C         3.423268         0.482061        -0.533110
 C         2.689335         0.546863         0.779227
 O         2.861694         1.320799         1.937996
 H         5.084010        -2.090552         0.314502
 H         4.594226        -1.389562         2.040782
 H         3.651759        -2.702495         1.422632
 H         0.046240        -0.786730         1.391974
 H        -0.397050         0.835685         0.975567
 H        -0.601046        -0.398552        -0.216153
 H         2.015093        -0.064795        -2.243286
 H         1.798596         1.587157        -1.465087
 H         4.460672         0.686976        -0.895977
 H         2.745652         2.258590         1.808701
