19
Iteration:  4963
 C         4.402558        -1.593682         0.945907
 C         3.230985        -0.806366         0.410076
 O         2.048663        -1.437403         0.079723
 C         1.443528        -0.102247         0.084688
 C        -0.047943         0.040003         0.290418
 C         2.109292         0.574964        -1.202119
 C         3.394208         0.475795        -0.521782
 C         2.648841         0.498599         0.890487
 O         2.813035         1.047076         2.110956
 H         4.700444        -2.517967         0.390913
 H         5.343126        -1.056818         1.111129
 H         4.149096        -2.150863         1.912575
 H        -0.572072        -0.629327        -0.382622
 H        -0.293070         0.103982         1.396851
 H        -0.264812         0.976367        -0.131655
 H         2.289407        -0.069880        -2.128821
 H         1.607774         1.519932        -1.350713
 H         4.351590         0.922943        -0.774624
 H         3.483361         0.541825         2.563597
