19
Iteration:  4642
 C         4.344861        -1.897994         0.848972
 C         3.315047        -0.846244         0.445161
 O         2.041916        -1.347826         0.064275
 C         1.433422        -0.034056         0.083682
 C        -0.005231        -0.209512         0.339382
 C         2.102901         0.602209        -1.156527
 C         3.382213         0.440393        -0.342731
 C         2.753889         0.486688         0.922272
 O         2.806453         1.447162         1.920795
 H         5.031975        -2.111933         0.012273
 H         4.832899        -1.671870         1.814632
 H         3.844497        -2.832365         1.161579
 H        -0.211361        -0.995097        -0.361002
 H        -0.268896        -0.452232         1.318942
 H        -0.571554         0.728952         0.102126
 H         2.181800        -0.038426        -2.010918
 H         1.725619         1.614773        -1.250625
 H         4.367045         0.971714        -0.506216
 H         2.339016         1.155293         2.699455
