19
Iteration:  3557
 C         4.595565        -1.561161         0.910687
 C         3.361481        -0.826101         0.354479
 O         1.884693        -1.477561         0.255655
 C         1.449017        -0.089855         0.102086
 C         0.003612         0.365479         0.310609
 C         2.086120         0.390622        -1.317530
 C         3.356923         0.312847        -0.597016
 C         2.772416         0.396411         0.904225
 O         2.737819         1.042382         2.176888
 H         4.674964        -1.483043         2.023059
 H         4.432349        -2.701225         0.764521
 H         5.417940        -1.045415         0.377731
 H        -0.505281        -0.534988         0.630304
 H        -0.142740         1.112779         1.050110
 H        -0.398184         0.720848        -0.671446
 H         1.739700        -0.165794        -2.230490
 H         1.597557         1.370052        -1.393756
 H         4.264258         0.418135        -1.132935
 H         2.224189         1.838385         2.092675
