19
Iteration:  4562charge 0 multiplicity 1
 C         4.533319        -1.485057         0.976881
 C         3.306124        -0.845552         0.438011
 O         1.962824        -1.505944         0.194685
 C         1.374477        -0.123332         0.039559
 C        -0.063144         0.128073         0.289717
 C         2.111654         0.486041        -1.268091
 C         3.449939         0.431576        -0.518785
 C         2.639646         0.423322         0.857532
 O         2.831287         1.109029         2.048021
 H         4.794648        -2.485219         0.533115
 H         5.285248        -0.836221         0.624317
 H         4.480282        -1.797564         2.062529
 H        -0.676785         0.260504        -0.577608
 H        -0.399900        -0.546534         1.120226
 H        -0.014473         1.058993         0.737536
 H         1.875477        -0.180163        -2.132288
 H         1.801360         1.552320        -1.521637
 H         4.426305         0.728208        -0.845798
 H         2.263272         0.848347         2.767639
