19
Iteration:  4527charge 0 multiplicity 1
 C         4.291731        -1.664596         1.170806
 C         3.284239        -0.838063         0.321872
 O         2.058935        -1.467861        -0.014682
 C         1.490869        -0.066231         0.043224
 C         0.029127        -0.067290         0.545766
 C         2.072649         0.564461        -1.254350
 C         3.474801         0.523350        -0.554940
 C         2.691512         0.426372         0.818797
 O         2.757677         1.228378         1.946428
 H         4.276650        -2.688060         0.857047
 H         5.346609        -1.253382         1.053272
 H         4.194663        -1.447823         2.228921
 H        -0.777607        -0.377744        -0.123138
 H        -0.204518        -0.514530         1.507302
 H        -0.061913         0.982596         0.675216
 H         1.908984        -0.135899        -2.159190
 H         1.781556         1.597602        -1.495931
 H         4.530381         0.871056        -0.884981
 H         2.687080         0.703216         2.752474
