19
Iteration:  3870
 C         4.410929        -1.715922         0.781764
 C         3.282235        -0.801863         0.493151
 O         2.014826        -1.413534         0.212146
 C         1.362392        -0.072332         0.093902
 C        -0.130648        -0.026575         0.012776
 C         2.126896         0.506204        -1.199582
 C         3.335316         0.533836        -0.320438
 C         2.659187         0.464303         0.934968
 O         3.014877         1.135407         2.183946
 H         4.665271        -2.087051         1.822101
 H         4.355325        -2.640548         0.187092
 H         5.374208        -1.271828         0.482745
 H        -0.467540         0.854215        -0.442356
 H        -0.486836        -0.844326        -0.569236
 H        -0.682536        -0.160987         0.964375
 H         2.065199        -0.104647        -2.137165
 H         1.746952         1.518254        -1.378779
 H         4.423084         0.903456        -0.404992
 H         2.745516         2.068949         2.027398
