19
Iteration:  4522
 C         4.302425        -1.674633         1.144250
 C         3.288639        -0.814315         0.310752
 O         2.056156        -1.436898        -0.056025
 C         1.464124        -0.053571         0.019204
 C         0.010575        -0.106851         0.580470
 C         2.102494         0.527052        -1.232544
 C         3.494187         0.522229        -0.540563
 C         2.720587         0.412757         0.820000
 O         2.745835         1.267666         1.931816
 H         4.105131        -2.799104         1.035485
 H         5.359509        -1.374207         1.213976
 H         4.027034        -1.634562         2.247295
 H        -0.726021        -0.484046        -0.169355
 H        -0.103618        -0.433003         1.646162
 H        -0.314594         1.070074         0.714917
 H         2.027321        -0.149643        -2.036761
 H         1.726789         1.543085        -1.387402
 H         4.380750         0.932209        -0.863271
 H         2.858476         0.729647         2.774301
