19
Iteration:  1838charge 0 multiplicity 1
 C         4.350408        -1.817365         1.016945
 C         3.356533        -0.876135         0.408263
 O         2.051934        -1.449867         0.099605
 C         1.427043        -0.177196         0.193910
 C         0.030177         0.013771         0.518725
 C         2.001896         0.470210        -1.222654
 C         3.420380         0.420931        -0.476262
 C         2.693217         0.490836         0.796650
 O         2.805318         1.453939         1.823883
 H         4.964738        -1.334090         1.736988
 H         3.882234        -2.667068         1.569538
 H         5.042296        -2.267314         0.342018
 H        -0.337399        -0.972494         0.734497
 H        -0.336908         0.582469         1.392083
 H        -0.691390         0.378574        -0.203441
 H         1.860978        -0.307203        -1.987665
 H         1.688855         1.458683        -1.556248
 H         4.268243         1.017093        -0.756600
 H         3.353802         2.188103         1.550220
