19
Iteration:  1928
 C         4.377791        -1.637068         1.002221
 C         3.280306        -0.775873         0.407890
 O         2.022635        -1.489873         0.312672
 C         1.437896        -0.215735         0.133638
 C        -0.014895         0.171593         0.338774
 C         1.985336         0.336746        -1.265047
 C         3.289456         0.417210        -0.578805
 C         2.733238         0.503865         0.773832
 O         2.971901         1.206524         1.990597
 H         4.064431        -2.409590         1.696252
 H         4.832371        -2.128857         0.081213
 H         5.125826        -1.003076         1.505825
 H        -0.055962         0.106091         1.491997
 H        -0.189244         1.189351        -0.179060
 H        -0.691901        -0.640278        -0.117585
 H         1.802648        -0.365560        -2.055655
 H         1.686182         1.396907        -1.470382
 H         4.061618         1.069032        -1.005428
 H         3.150626         2.139986         1.887212
