19
Iteration:  2544charge 0 multiplicity 1
 C         4.423748        -1.514995         0.905081
 C         3.191646        -0.846703         0.609805
 O         1.865989        -1.433226         0.534727
 C         1.352665        -0.076077         0.101964
 C        -0.093723         0.136328         0.419153
 C         1.958979         0.136743        -1.282403
 C         3.334088         0.116864        -0.608788
 C         2.724382         0.561565         0.723733
 O         3.262307         1.492226         1.670746
 H         4.292533        -2.392064         1.598384
 H         4.909342        -1.897553        -0.053067
 H         5.166951        -0.770435         1.359323
 H         0.076888        -0.518410         1.207555
 H        -0.331628         1.132370         0.823729
 H        -0.855864        -0.233060        -0.201172
 H         1.662125        -0.642304        -2.008257
 H         1.723461         1.143931        -1.673470
 H         4.388189         0.363734        -0.906266
 H         2.982936         1.153633         2.572156
