19
Iteration:  3031charge 0 multiplicity 1
 C         4.396904        -1.671053         1.016165
 C         3.176295        -0.901603         0.614170
 O         1.852184        -1.465139         0.432579
 C         1.409360        -0.059270         0.042667
 C         0.062255         0.139224         0.572144
 C         2.048646         0.136199        -1.312606
 C         3.428110         0.140893        -0.618899
 C         2.768741         0.538381         0.716083
 O         2.927194         1.666749         1.641007
 H         5.260660        -0.915230         0.898944
 H         4.411549        -2.325361         1.961577
 H         4.630595        -2.393685         0.139124
 H         0.088642        -0.012555         1.659194
 H        -0.155936         1.251919         0.423650
 H        -0.773898        -0.429610         0.096681
 H         2.109577        -0.696596        -2.129724
 H         1.797286         1.189139        -1.617166
 H         4.461771         0.409154        -1.064863
 H         2.974323         1.274413         2.524389
