19
Iteration:  4107
 C         4.419358        -1.688944         0.954874
 C         3.218796        -0.837126         0.386621
 O         1.961811        -1.388922         0.162964
 C         1.396973        -0.004672        -0.011589
 C        -0.051876        -0.062562         0.424350
 C         2.154257         0.368081        -1.305681
 C         3.421325         0.373289        -0.487379
 C         2.749621         0.479893         0.915669
 O         2.875674         1.298038         2.072808
 H         5.053482        -1.953401         0.021119
 H         4.988126        -1.174443         1.674604
 H         3.881055        -2.584471         1.372456
 H        -0.157653        -0.221933         1.497676
 H        -0.400088         1.015926         0.425857
 H        -0.817063        -0.689998        -0.180977
 H         2.021053        -0.356149        -2.081885
 H         1.803102         1.342522        -1.686154
 H         4.388781         0.776453        -0.666618
 H         2.905218         2.203286         1.762749
