19
Iteration:  4279
 C         4.392036        -1.700027         0.907423
 C         3.267406        -0.819521         0.469994
 O         2.025109        -1.449388         0.235978
 C         1.374084        -0.124606         0.092037
 C        -0.054232        -0.033404         0.359557
 C         2.185178         0.504990        -1.262926
 C         3.379055         0.429968        -0.467843
 C         2.753212         0.507499         0.855851
 O         2.846404         1.256513         1.963157
 H         4.210432        -2.786601         0.812759
 H         5.222538        -1.418005         0.329761
 H         4.534743        -1.550173         2.001482
 H        -0.731242        -0.653255        -0.282238
 H        -0.269381        -0.239920         1.470593
 H        -0.346618         0.982248         0.118619
 H         2.137497        -0.223229        -2.072014
 H         1.914618         1.550754        -1.599022
 H         4.338533         0.656414        -0.811957
 H         2.254362         2.026716         1.832151
