19
Iteration:  3021charge 0 multiplicity 1
 C         4.360979        -1.645686         1.057573
 C         3.187051        -0.916520         0.574188
 O         1.921824        -1.458610         0.370985
 C         1.439016        -0.096330         0.062028
 C         0.090841         0.175413         0.646308
 C         2.058642         0.180467        -1.363287
 C         3.336507         0.143355        -0.591422
 C         2.790319         0.516328         0.758027
 O         2.936797         1.619970         1.583101
 H         5.130301        -0.852656         1.404685
 H         4.131397        -2.195723         2.030041
 H         4.789600        -2.341350         0.243467
 H         0.120326        -0.159315         1.684287
 H        -0.066485         1.275894         0.710965
 H        -0.781768        -0.304558         0.157715
 H         1.907504        -0.586852        -2.222264
 H         1.844736         1.152654        -1.874284
 H         4.332971         0.176380        -1.117781
 H         2.459335         1.417819         2.417053
