19
Iteration:   719charge 0 multiplicity 1
 C         4.425542        -1.741619         0.758891
 C         3.242130        -0.812816         0.397553
 O         2.025148        -1.331094        -0.130912
 C         1.484026         0.005812        -0.049490
 C        -0.026362        -0.220974         0.241607
 C         2.255596         0.674583        -1.118476
 C         3.490870         0.613294        -0.273699
 C         2.644544         0.493461         1.026256
 O         2.686641         1.058100         2.287133
 H         4.031847        -2.600161         1.382305
 H         4.721641        -2.347522        -0.237849
 H         5.195251        -1.155943         1.353775
 H        -0.727782         0.493046        -0.315404
 H        -0.225387        -1.282783        -0.145829
 H        -0.382633        -0.226110         1.338811
 H         2.361415        -0.102807        -2.022751
 H         1.832729         1.671934        -1.527255
 H         4.557141         0.928597        -0.333452
 H         1.819744         1.297071         2.648794
