19
Iteration:  1081charge 0 multiplicity 1
 C         4.436303        -1.734394         0.595357
 C         3.293865        -0.768475         0.571834
 O         2.018703        -1.418800         0.163540
 C         1.481646        -0.003466        -0.030756
 C        -0.013731        -0.066465         0.160056
 C         2.269646         0.465489        -1.241469
 C         3.459288         0.590298        -0.321923
 C         2.654637         0.501125         1.013266
 O         2.560866         1.089937         2.245981
 H         4.213817        -2.761503         0.871982
 H         5.008339        -1.756538        -0.425816
 H         5.267305        -1.555944         1.365091
 H        -0.186861        -0.272001         1.267167
 H        -0.504974         0.947971         0.021069
 H        -0.335801        -0.910671        -0.512264
 H         2.181585        -0.253552        -2.082398
 H         1.788114         1.526657        -1.439234
 H         4.564516         0.856800        -0.349246
 H         2.508517         2.070168         2.219547
