19
Iteration:  4379
 C         4.469190        -1.610757         0.961660
 C         3.245917        -0.833289         0.481640
 O         2.016891        -1.460037         0.138743
 C         1.408896        -0.055969         0.098122
 C        -0.035110         0.084723         0.417696
 C         2.072067         0.337049        -1.302684
 C         3.405868         0.342358        -0.546562
 C         2.802135         0.540117         0.815174
 O         2.742351         1.312533         1.993793
 H         4.913052        -2.404396         0.283115
 H         5.072607        -0.813039         1.246743
 H         4.245245        -2.193997         1.870661
 H        -0.644128         0.075484        -0.494604
 H        -0.298965        -0.761482         1.105901
 H        -0.322890         0.920557         1.132309
 H         1.915695        -0.402374        -2.059512
 H         1.830043         1.406597        -1.574109
 H         4.421079         0.676630        -0.992217
 H         3.055227         0.652086         2.685113
