19
Iteration:   409
 C         4.403890        -1.771513         0.757590
 C         3.219005        -0.885486         0.350763
 O         1.953323        -1.330966        -0.170974
 C         1.496055         0.029270        -0.088279
 C        -0.005420        -0.021586         0.248274
 C         2.342466         0.798145        -1.106156
 C         3.496808         0.644563        -0.176591
 C         2.635865         0.440626         0.989700
 O         2.589097         0.754493         2.309125
 H         4.207776        -2.422774         1.605337
 H         4.697594        -2.142024        -0.218719
 H         5.347273        -1.143530         1.027286
 H        -0.509750         0.895184        -0.067587
 H        -0.212357        -1.021524        -0.079568
 H         0.009547        -0.129694         1.378824
 H         2.458294         0.420726        -2.049675
 H         1.977639         1.852258        -1.241883
 H         4.516900         0.820842        -0.226577
 H         2.517701         1.714415         2.387972
