19
Iteration:  4525charge 0 multiplicity 1
 C         4.292556        -1.672407         1.164145
 C         3.280151        -0.826956         0.313613
 O         2.058018        -1.457312        -0.029360
 C         1.485959        -0.058220         0.034281
 C         0.021851        -0.089673         0.562163
 C         2.082163         0.554161        -1.243900
 C         3.484951         0.525693        -0.551569
 C         2.700124         0.416994         0.818542
 O         2.752951         1.242355         1.942317
 H         4.209049        -2.717477         0.928401
 H         5.387479        -1.275934         1.133378
 H         4.160467        -1.513042         2.210170
 H        -0.780943        -0.413044        -0.146807
 H        -0.180585        -0.462640         1.537708
 H        -0.148800         1.052775         0.694629
 H         1.949881        -0.166375        -2.127620
 H         1.771041         1.558380        -1.451309
 H         4.502148         0.897619        -0.890015
 H         2.748868         0.726012         2.748030
