19
Iteration:  4557charge 0 multiplicity 1
 C         4.526395        -1.505817         1.011591
 C         3.272183        -0.843269         0.450465
 O         1.972401        -1.510605         0.189269
 C         1.415547        -0.091509        -0.015082
 C        -0.009883         0.097204         0.325269
 C         2.091014         0.484842        -1.256943
 C         3.431904         0.430975        -0.549247
 C         2.611431         0.431448         0.863413
 O         2.834171         1.100220         2.034118
 H         4.687421        -2.449413         0.512880
 H         5.487014        -0.930478         0.696189
 H         4.394299        -1.609182         2.075994
 H        -0.783713         0.204089        -0.494544
 H        -0.406146        -0.572052         1.066223
 H         0.104050         1.197684         0.743827
 H         1.871076        -0.002345        -2.253613
 H         1.744495         1.490112        -1.374778
 H         4.463329         0.802715        -0.854931
 H         2.235777         0.818787         2.782970
