19
Iteration:  4850
 C         4.198254        -1.909910         0.931898
 C         3.391245        -0.809494         0.426729
 O         2.079608        -1.410522        -0.043438
 C         1.479632        -0.094565         0.071066
 C         0.053734        -0.270228         0.436733
 C         2.105400         0.748274        -1.165778
 C         3.421421         0.467446        -0.409395
 C         2.773775         0.451997         0.970556
 O         2.690342         1.442594         1.892747
 H         4.645963        -2.403058         0.068909
 H         4.932990        -1.537928         1.696279
 H         3.563525        -2.602328         1.373048
 H        -0.524279        -0.514321        -0.468273
 H        -0.152335        -0.927225         1.172589
 H        -0.289459         0.697018         0.931094
 H         2.045033         0.459431        -2.254381
 H         2.154741         1.828174        -0.938046
 H         4.342363         0.866509        -0.715395
 H         2.649047         1.069336         2.820470
