19
Iteration:  2529charge 0 multiplicity 1
 C         4.429896        -1.615030         0.957030
 C         3.180665        -0.839365         0.584024
 O         1.883497        -1.392668         0.405815
 C         1.363169        -0.089546         0.165384
 C        -0.105434         0.024674         0.557228
 C         1.983460         0.191734        -1.245420
 C         3.330894         0.133456        -0.611717
 C         2.812206         0.582511         0.793029
 O         3.225386         1.554404         1.577755
 H         4.160035        -2.569263         1.469370
 H         4.921427        -1.978601         0.078908
 H         5.126361        -1.108025         1.625680
 H        -0.749041        -0.362895         1.333844
 H        -0.331817         1.099067         0.516731
 H        -0.646698        -0.168194        -0.409482
 H         1.810501        -0.614329        -1.969399
 H         1.751849         1.171383        -1.643185
 H         4.234586         0.269569        -1.176120
 H         2.817694         1.463336         2.470533
