19
Iteration:  2305charge 0 multiplicity 1
 C         4.310131        -1.862710         1.113843
 C         3.355761        -0.886003         0.437359
 O         1.986197        -1.522801         0.299074
 C         1.437560        -0.075603         0.106458
 C         0.060997         0.174815         0.643135
 C         1.892101         0.357123        -1.236732
 C         3.359890         0.243013        -0.673990
 C         2.740210         0.447659         0.820180
 O         3.068206         1.619111         1.565327
 H         3.644291        -2.248358         1.833266
 H         4.833969        -2.609420         0.530852
 H         5.098119        -1.471056         1.746888
 H        -0.122390        -0.281094         1.650320
 H        -0.445165         1.211594         0.458796
 H        -0.640663        -0.535588         0.093749
 H         1.309739        -0.026134        -2.097690
 H         1.756495         1.401867        -1.134525
 H         4.295823         0.617727        -1.063487
 H         2.301477         2.063566         2.042893
