19
Iteration:   771charge 0 multiplicity 1
 C         4.549713        -1.557860         0.917301
 C         3.331209        -0.860519         0.337294
 O         2.062456        -1.470820        -0.065609
 C         1.507737        -0.085724         0.042583
 C        -0.003304         0.084412         0.173257
 C         2.119868         0.610457        -1.131563
 C         3.388384         0.653026        -0.383755
 C         2.645318         0.337930         0.999140
 O         2.571030         0.851280         2.230056
 H         4.258311        -2.014148         1.832258
 H         4.788879        -2.268530         0.175798
 H         5.317951        -0.880394         1.134633
 H        -0.206090         1.056142         0.607740
 H        -0.475836         0.004990        -0.808934
 H        -0.469464        -0.637356         0.870226
 H         1.993892         0.176557        -2.064397
 H         1.877768         1.686298        -1.088897
 H         4.363910         1.201740        -0.511571
 H         2.708564         1.825340         2.201917
