19
Iteration:  2470
 C         4.260105        -1.879326         1.055746
 C         3.247111        -0.892731         0.522064
 O         1.980468        -1.483889         0.287871
 C         1.430400        -0.020109         0.086962
 C         0.003925         0.028092         0.800381
 C         2.025314         0.326576        -1.238152
 C         3.441240         0.176131        -0.626585
 C         2.789410         0.577082         0.681071
 O         2.944662         1.743470         1.512347
 H         3.723608        -2.549670         1.663780
 H         4.784696        -2.441915         0.260409
 H         5.065546        -1.532394         1.651799
 H         0.280949        -0.111636         1.889501
 H        -0.434406         0.982880         0.450966
 H        -0.495664        -0.920313         0.501374
 H         1.774519        -0.379878        -2.044645
 H         1.713712         1.354074        -1.557087
 H         4.394610         0.602739        -1.007340
 H         2.789306         1.511572         2.422288
