19
Iteration:  2538
 C         4.446303        -1.552941         0.923464
 C         3.169102        -0.803043         0.630149
 O         1.873624        -1.403332         0.472916
 C         1.333922        -0.089897         0.138641
 C        -0.108574         0.106946         0.438556
 C         1.997677         0.172805        -1.241375
 C         3.326437         0.088838        -0.635873
 C         2.761224         0.529803         0.736714
 O         3.256232         1.515724         1.641351
 H         4.124197        -2.365670         1.534204
 H         4.835283        -1.760568        -0.065606
 H         5.139650        -0.930269         1.406771
 H        -0.185535        -0.554341         1.461393
 H        -0.167276         1.129045         0.850780
 H        -0.819059        -0.366394        -0.348632
 H         1.769760        -0.637778        -1.951655
 H         1.694443         1.124770        -1.715842
 H         4.294672         0.304134        -0.986588
 H         2.895254         1.278845         2.531276
