19
Iteration:  2117
 C         4.293164        -1.772100         1.070710
 C         3.346174        -0.769638         0.436961
 O         2.014864        -1.442134         0.286238
 C         1.473086        -0.146239         0.185477
 C        -0.003930         0.130711         0.536041
 C         1.867812         0.240743        -1.345890
 C         3.373250         0.263195        -0.715470
 C         2.747515         0.587591         0.805811
 O         3.037107         1.406953         1.873946
 H         5.144842        -1.199094         1.445062
 H         3.675930        -1.927020         1.899570
 H         4.467860        -2.660186         0.498890
 H        -0.538961        -0.733108         1.041729
 H         0.022608         1.024706         1.204529
 H        -0.628566         0.372153        -0.385199
 H         1.690828        -0.579302        -2.023925
 H         1.572272         1.187683        -1.778727
 H         4.215510         0.799335        -1.189064
 H         3.157951         2.304918         1.472606
