19
Iteration:  4531
 C         4.298901        -1.633863         1.170189
 C         3.303956        -0.857305         0.349952
 O         2.059300        -1.481321         0.009024
 C         1.480238        -0.092820         0.050911
 C         0.049964        -0.030251         0.514980
 C         2.059767         0.574811        -1.281057
 C         3.452289         0.509417        -0.554328
 C         2.689587         0.448893         0.818039
 O         2.767084         1.205699         1.953793
 H         4.375412        -2.691872         0.776930
 H         5.246886        -1.245590         0.874366
 H         4.178806        -1.413132         2.276571
 H        -0.746955        -0.339813        -0.158180
 H        -0.169470        -0.614856         1.463513
 H        -0.013253         1.056249         0.694769
 H         1.868178        -0.008619        -2.146997
 H         1.784099         1.631715        -1.531525
 H         4.422223         0.805236        -0.820862
 H         2.583518         0.644199         2.757224
