19
Iteration:  3695charge 0 multiplicity 1
 C         4.402847        -1.745246         0.790382
 C         3.200012        -0.811520         0.558000
 O         2.009013        -1.390719         0.049757
 C         1.386329        -0.101646         0.106120
 C        -0.086685         0.025318         0.191010
 C         2.118432         0.483162        -1.154626
 C         3.378422         0.507799        -0.378273
 C         2.645358         0.434335         0.968780
 O         2.996450         1.191222         2.089341
 H         5.205192        -1.956004         0.056541
 H         4.989271        -1.392567         1.592409
 H         4.039263        -2.710373         1.138004
 H        -0.555654         0.893482         0.562528
 H        -0.509691        -0.174769        -0.818087
 H        -0.528155        -0.735436         0.931057
 H         2.001876        -0.238443        -1.974772
 H         1.917369         1.490807        -1.460917
 H         4.359346         0.858546        -0.504639
 H         3.223553         2.089484         1.714068
