19
Iteration:  4209
 C         4.495119        -1.624360         0.948461
 C         3.247539        -0.857131         0.504458
 O         1.915424        -1.455091         0.249990
 C         1.417387        -0.101558        -0.019925
 C        -0.020654         0.040305         0.343425
 C         2.092783         0.420562        -1.296735
 C         3.376790         0.413202        -0.452520
 C         2.697092         0.510228         0.838109
 O         2.854875         1.199728         2.055659
 H         4.788486        -2.134869         0.064921
 H         5.340366        -0.909412         1.157689
 H         4.249438        -2.402352         1.616422
 H        -0.534752        -0.970131         0.504717
 H        -0.077660         0.760574         1.174325
 H        -0.639029         0.513225        -0.550115
 H         2.224284        -0.274884        -2.141342
 H         1.876653         1.391156        -1.648202
 H         4.326928         0.805082        -0.962731
 H         3.206364         2.125294         1.952088
