19
Iteration:  4717
 C         4.423715        -1.607685         0.964696
 C         3.281017        -0.849995         0.410590
 O         2.047312        -1.432451        -0.039794
 C         1.455143        -0.019110         0.030487
 C         0.004896         0.057890         0.381531
 C         2.104223         0.476947        -1.263907
 C         3.387657         0.451477        -0.442583
 C         2.691228         0.472993         0.874055
 O         2.718541         1.106225         2.127330
 H         4.949411        -2.314225         0.279238
 H         5.195059        -0.950968         1.380274
 H         4.085614        -2.033169         1.928056
 H        -0.534540        -0.747784        -0.084810
 H        -0.142393         0.013599         1.487933
 H        -0.377456         1.041096         0.016556
 H         1.797547        -0.090621        -2.172769
 H         1.909834         1.606565        -1.362367
 H         4.425067         0.800611        -0.794071
 H         3.025128         0.543427         2.884298
