19
Iteration:   290charge 0 multiplicity 1
 C         4.429207        -1.763518         0.735168
 C         3.302845        -0.825982         0.354260
 O         2.083982        -1.406845        -0.154655
 C         1.492647         0.008650         0.024452
 C        -0.001721         0.112337         0.119762
 C         2.231414         0.757513        -1.086382
 C         3.438945         0.625059        -0.230645
 C         2.628576         0.279743         1.054271
 O         2.526164         0.837728         2.374435
 H         4.152851        -2.565637         1.417835
 H         4.824445        -2.174907        -0.209643
 H         5.244501        -1.140536         1.295123
 H        -0.234277         0.900092         0.901899
 H        -0.423822         0.384751        -0.912908
 H        -0.426561        -0.920559         0.457413
 H         2.225352         0.146700        -2.139153
 H         2.104408         1.851503        -1.347038
 H         4.393282         0.974278        -0.416660
 H         2.870880         1.750648         2.225447
