19
Iteration:  2749charge 0 multiplicity 1
 C         4.483031        -1.522207         1.021885
 C         3.217545        -0.869505         0.514713
 O         1.910981        -1.423352         0.517088
 C         1.333958        -0.021419         0.044485
 C        -0.022972         0.077864         0.481858
 C         1.965575         0.123612        -1.339728
 C         3.303719         0.319631        -0.631597
 C         2.711308         0.467861         0.729449
 O         3.170434         1.431893         1.683892
 H         5.305207        -1.281708         0.370229
 H         4.693636        -1.400522         2.036653
 H         4.337378        -2.601082         0.988486
 H        -0.213474        -0.647027         1.329679
 H        -0.212137         1.125767         0.947818
 H        -0.782220        -0.124296        -0.359183
 H         1.656200        -0.817308        -1.822972
 H         1.632468         0.989559        -1.895919
 H         4.248459         0.728453        -0.880897
 H         2.897444         1.428842         2.642120
