19
Iteration:  3586
 C         4.467023        -1.550500         0.937901
 C         3.233342        -0.869614         0.434253
 O         1.969620        -1.490355         0.130038
 C         1.419344        -0.035634         0.038969
 C         0.013486         0.255154         0.457608
 C         2.162037         0.421944        -1.261295
 C         3.422066         0.358876        -0.472861
 C         2.713394         0.492322         0.796803
 O         2.738978         0.992395         2.061760
 H         5.073907        -1.208325         1.791446
 H         4.226418        -2.581222         1.093361
 H         5.123396        -1.550410         0.020947
 H        -0.163281        -0.176615         1.439902
 H        -0.147161         1.372567         0.584805
 H        -0.668367        -0.209411        -0.356781
 H         1.909932        -0.209340        -2.137011
 H         1.773781         1.418981        -1.459779
 H         4.369526         0.683900        -0.828796
 H         2.757164         1.981582         2.039166
