19
Iteration:  4731charge 0 multiplicity 1
 C         4.446586        -1.530889         0.940300
 C         3.277995        -0.729546         0.417928
 O         2.008464        -1.422009         0.044699
 C         1.439671        -0.142084         0.061191
 C        -0.048374         0.110751         0.312733
 C         2.112279         0.471040        -1.254458
 C         3.508996         0.404904        -0.571800
 C         2.649322         0.447113         0.954720
 O         2.711480         1.054740         2.208159
 H         4.575060        -2.286447         0.163725
 H         5.300398        -0.764562         0.836605
 H         4.402537        -2.038810         1.890523
 H        -0.665769        -0.448722        -0.393631
 H        -0.352974         0.005554         1.273226
 H        -0.217409         1.229638         0.133760
 H         2.120318        -0.246477        -2.075140
 H         1.768052         1.431085        -1.542783
 H         4.513580         0.681214        -0.931676
 H         3.158300         0.376373         2.706661
