19
Iteration:  2253
 C         4.413198        -1.692456         0.819241
 C         3.214809        -0.896570         0.499885
 O         1.852553        -1.363763         0.445983
 C         1.436970         0.028743         0.027353
 C         0.104342         0.245843         0.650473
 C         2.062956         0.131988        -1.370049
 C         3.362593         0.126947        -0.583941
 C         2.747548         0.549256         0.772571
 O         2.923014         1.434243         1.831481
 H         4.267831        -2.582382         1.480640
 H         4.943192        -2.219677        -0.083027
 H         5.277597        -1.256442         1.338950
 H         0.177725         0.464259         1.749600
 H        -0.473867         1.081968         0.204334
 H        -0.501415        -0.662167         0.654805
 H         2.023737        -0.877057        -1.817597
 H         1.835137         0.908281        -2.123349
 H         4.376951         0.341477        -0.852453
 H         2.317280         2.197361         1.655973
