19
Iteration:  1673charge 0 multiplicity 1
 C         4.394018        -1.727999         0.996352
 C         3.236607        -0.809983         0.457490
 O         1.968693        -1.434424         0.142593
 C         1.443804         0.014774         0.031783
 C         0.032744        -0.147543         0.567427
 C         2.193654         0.434952        -1.323881
 C         3.462638         0.430090        -0.537884
 C         2.736864         0.559902         0.809419
 O         2.771880         1.365090         1.928185
 H         3.948324        -2.738688         0.923976
 H         5.314070        -1.697431         0.393588
 H         4.581036        -1.584678         2.055484
 H        -0.660139        -0.716486        -0.120529
 H         0.107701        -0.772347         1.462692
 H        -0.541338         0.731786         0.923692
 H         2.079691        -0.309355        -2.117658
 H         1.691181         1.355520        -1.609284
 H         4.512543         0.599233        -0.860873
 H         1.884881         1.643941         2.231071
