19
Iteration:  4793charge 0 multiplicity 1
 C         4.418779        -1.653867         0.875313
 C         3.304585        -0.843195         0.377120
 O         2.075472        -1.490415         0.064799
 C         1.429862        -0.108187         0.037901
 C        -0.060189         0.039837         0.264606
 C         2.099678         0.513558        -1.208302
 C         3.393815         0.441674        -0.354290
 C         2.644166         0.464465         0.925268
 O         2.816761         1.264296         2.125976
 H         4.473863        -2.600268         0.322397
 H         5.263855        -1.197642         0.435502
 H         4.607466        -1.802121         1.950036
 H        -0.634995         0.263362        -0.636871
 H        -0.394707        -0.963719         0.577992
 H        -0.254383         0.892256         0.928012
 H         2.108218        -0.004257        -2.190921
 H         1.708329         1.558348        -1.421814
 H         4.457823         0.826300        -0.459079
 H         2.388093         0.835256         2.862235
