19
Iteration:    41
 C         4.256942        -1.942037         0.661963
 C         3.285409        -0.820284         0.476414
 O         2.069335        -1.348872        -0.071311
 C         1.552866         0.015178        -0.108025
 C         0.111287        -0.043504         0.385484
 C         2.373024         0.808404        -1.228744
 C         3.521897         0.635935        -0.211213
 C         2.599182         0.408532         0.976258
 O         2.430702         1.023265         2.204570
 H         3.822711        -2.625501         1.353568
 H         4.624629        -2.376822        -0.257041
 H         5.213938        -1.457403         1.104702
 H         0.180681         0.296158         1.408410
 H        -0.569822         0.495910        -0.283919
 H        -0.152462        -1.132273         0.342323
 H         2.425442         0.265892        -2.186058
 H         1.950092         1.931708        -1.238824
 H         4.488835         1.256319        -0.201492
 H         2.365496         0.254909         2.827447
