19
Iteration:  1268charge 0 multiplicity 1
 C         4.541654        -1.593346         0.783324
 C         3.326042        -0.869298         0.452531
 O         2.047213        -1.526133        -0.005819
 C         1.442049        -0.155918         0.070717
 C        -0.032931         0.041031         0.173218
 C         2.142624         0.654220        -1.093975
 C         3.422121         0.453301        -0.329723
 C         2.597339         0.372850         0.980635
 O         2.614264         1.147230         2.147048
 H         4.540776        -2.076311         1.802045
 H         4.891952        -2.331232         0.119102
 H         5.451119        -1.017153         0.851356
 H        -0.418339        -0.583318         0.953324
 H        -0.091151         1.044455         0.577155
 H        -0.504300        -0.129141        -0.793160
 H         2.016875         0.160407        -2.099030
 H         1.838318         1.700672        -1.049691
 H         4.440028         0.790714        -0.519394
 H         2.740219         2.095028         1.892916
