19
Iteration:  2278
 C         4.338496        -1.775440         0.939024
 C         3.205435        -0.962834         0.576614
 O         1.900923        -1.476656         0.355513
 C         1.477433        -0.121625         0.149628
 C         0.051214         0.253621         0.717549
 C         2.060027         0.289931        -1.251740
 C         3.397449         0.269207        -0.671185
 C         2.824431         0.495662         0.702545
 O         2.935199         1.525421         1.619520
 H         4.077029        -2.678553         1.593051
 H         5.020048        -2.226475         0.175216
 H         5.080074        -1.328093         1.620645
 H        -0.122746         0.409851         1.775613
 H        -0.311720         1.054630         0.131593
 H        -0.633652        -0.577608         0.532922
 H         1.853934        -0.323709        -2.149198
 H         1.728057         1.371297        -1.385372
 H         4.392246         0.583070        -1.019265
 H         2.055862         1.994872         1.599568
