19
Iteration:  3704
 C         4.450624        -1.715601         0.777094
 C         3.243250        -0.852550         0.460450
 O         2.009490        -1.422236         0.120026
 C         1.416702        -0.064422         0.048783
 C        -0.141384         0.075632         0.206319
 C         2.129469         0.450434        -1.165828
 C         3.415461         0.468114        -0.325734
 C         2.599485         0.486073         0.989043
 O         2.959871         1.148861         2.115570
 H         4.949198        -1.922080        -0.195051
 H         5.058729        -1.159660         1.477433
 H         4.125515        -2.685102         1.234489
 H        -0.372927         1.122946         0.326680
 H        -0.601652        -0.248632        -0.739819
 H        -0.564752        -0.572621         0.953110
 H         2.080706        -0.263384        -1.981972
 H         1.708419         1.407070        -1.500965
 H         4.334703         0.875654        -0.618138
 H         3.176589         2.082120         1.836196
