19
Iteration:  1256
 C         4.583114        -1.690633         0.853939
 C         3.317645        -0.833126         0.469328
 O         2.039097        -1.448731         0.091702
 C         1.479977        -0.161734         0.090451
 C         0.006456         0.021706         0.125603
 C         2.053795         0.672491        -1.147468
 C         3.412035         0.550197        -0.369627
 C         2.684978         0.369318         0.959555
 O         2.658551         1.042085         2.133205
 H         4.441803        -2.069710         1.864636
 H         4.448217        -2.524053         0.166722
 H         5.331649        -0.942592         0.684787
 H        -0.504781        -0.530481         0.884207
 H        -0.392840         1.030262         0.110573
 H        -0.410910        -0.321134        -0.804386
 H         1.891368         0.333643        -2.196193
 H         1.617075         1.708739        -1.127877
 H         4.296574         1.134318        -0.435754
 H         2.432283         1.973067         1.914372
