19
Iteration:  3111charge 0 multiplicity 1
 C         4.276057        -1.686180         1.066758
 C         3.221597        -0.845788         0.624566
 O         1.916069        -1.425140         0.391788
 C         1.393307        -0.006834         0.077674
 C        -0.180344         0.026131         0.457894
 C         2.066324         0.261247        -1.317022
 C         3.462016         0.225964        -0.577603
 C         2.793159         0.494032         0.778555
 O         3.165222         1.476262         1.649701
 H         5.289523        -1.367446         0.583002
 H         4.575234        -1.458041         2.126429
 H         4.140872        -2.817840         0.905353
 H        -0.161387         0.337315         1.512263
 H        -0.829878         0.611296        -0.153963
 H        -0.487666        -1.033034         0.467000
 H         1.812713        -0.486421        -2.129926
 H         1.871771         1.335414        -1.686604
 H         4.372361         0.719336        -0.793785
 H         2.505337         2.162382         1.605122
