19
Iteration:  2622charge 0 multiplicity 1
 C         4.356655        -1.637652         1.101501
 C         3.281652        -0.904314         0.465385
 O         1.890941        -1.440303         0.358768
 C         1.357006        -0.111455         0.021354
 C         0.104662         0.125707         0.767704
 C         1.985078         0.204656        -1.268597
 C         3.420144         0.322026        -0.671205
 C         2.783416         0.475451         0.635483
 O         2.940742         1.535514         1.589865
 H         4.611489        -1.389769         2.160068
 H         3.985704        -2.744333         1.218078
 H         5.350564        -1.587219         0.616560
 H         0.328100         0.186635         1.814446
 H        -0.347286         1.071701         0.453514
 H        -0.573744        -0.678102         0.573955
 H         1.825871        -0.418788        -2.165547
 H         1.581517         1.246215        -1.457703
 H         4.397883         0.440424        -1.048617
 H         2.834460         1.106663         2.449473
