19
Iteration:  2536charge 0 multiplicity 1
 C         4.447317        -1.568065         0.934712
 C         3.161182        -0.797223         0.626057
 O         1.875844        -1.395310         0.451830
 C         1.336210        -0.091789         0.145240
 C        -0.108671         0.083753         0.461072
 C         2.005475         0.179994        -1.233565
 C         3.321544         0.088884        -0.636563
 C         2.777913         0.533433         0.750952
 O         3.250215         1.523568         1.624169
 H         4.107803        -2.389545         1.511121
 H         4.849879        -1.793686        -0.100429
 H         5.155514        -0.968181         1.474689
 H        -0.357179        -0.523965         1.487778
 H        -0.170854         1.153995         0.810038
 H        -0.766649        -0.344537        -0.363316
 H         1.803561        -0.643934        -1.948538
 H         1.690670         1.147122        -1.718978
 H         4.291173         0.295573        -1.053684
 H         2.860428         1.317384         2.538145
