19
Iteration:  4551charge 0 multiplicity 1
 C         4.502540        -1.519816         1.033333
 C         3.226783        -0.819645         0.452337
 O         1.997857        -1.503751         0.160846
 C         1.479136        -0.094340        -0.066640
 C         0.049243         0.113589         0.375163
 C         2.058639         0.485199        -1.264416
 C         3.381510         0.408197        -0.547392
 C         2.637553         0.425763         0.842577
 O         2.831352         1.113940         2.024270
 H         4.481176        -2.533392         0.549857
 H         5.467831        -1.081969         0.985729
 H         4.404721        -1.440732         2.159049
 H        -0.702642         0.017588        -0.391515
 H        -0.357734        -0.638208         1.108961
 H        -0.022015         1.063648         0.765508
 H         1.984031         0.150377        -2.310705
 H         1.666172         1.561022        -1.174761
 H         4.321414         0.893890        -0.787249
 H         2.233325         0.689818         2.656533
