19
Iteration:  3701charge 0 multiplicity 1
 C         4.439590        -1.729622         0.773033
 C         3.206110        -0.841327         0.490322
 O         2.020438        -1.401723         0.097929
 C         1.426141        -0.085482         0.063608
 C        -0.125617         0.059470         0.204790
 C         2.128025         0.452132        -1.149087
 C         3.404342         0.482276        -0.344212
 C         2.592529         0.476807         0.987756
 O         2.975474         1.159414         2.104538
 H         5.069307        -1.969929        -0.102038
 H         5.073679        -1.191484         1.555609
 H         4.098318        -2.712878         1.191450
 H        -0.520518         1.111594         0.410245
 H        -0.578300        -0.223475        -0.751377
 H        -0.569966        -0.600963         0.902470
 H         2.033860        -0.279690        -1.965848
 H         1.777504         1.456513        -1.515629
 H         4.404875         0.896583        -0.605920
 H         3.190597         2.055242         1.768923
