19
Iteration:  2939charge 0 multiplicity 1
 C         4.345027        -1.559702         1.139437
 C         3.240037        -0.833689         0.403087
 O         1.912830        -1.387615         0.386021
 C         1.365207        -0.053273         0.132608
 C        -0.148294         0.043703         0.663468
 C         2.005985         0.123723        -1.349428
 C         3.421584         0.174882        -0.668424
 C         2.756322         0.542797         0.726596
 O         3.103609         1.524340         1.644217
 H         4.682867        -0.976410         1.960697
 H         3.967440        -2.442176         1.583834
 H         5.211213        -1.859044         0.606303
 H        -0.080279        -0.522703         1.647856
 H        -0.451853         1.096827         0.694527
 H        -0.814372        -0.502191        -0.039370
 H         1.891317        -0.668856        -2.064655
 H         1.799956         1.132623        -1.723981
 H         4.381040         0.414656        -1.090288
 H         4.082052         1.330450         1.795002
