19
Iteration:  3103charge 0 multiplicity 1
 C         4.310751        -1.703995         1.031044
 C         3.229178        -0.864515         0.587638
 O         1.957769        -1.378031         0.461764
 C         1.421840        -0.047377         0.097365
 C        -0.133059         0.030390         0.372690
 C         2.025265         0.247555        -1.318484
 C         3.441446         0.226582        -0.582475
 C         2.740769         0.481346         0.822203
 O         3.169552         1.517457         1.704673
 H         5.085463        -1.527503         0.339215
 H         4.507095        -1.657522         2.094949
 H         3.963087        -2.696872         0.794806
 H        -0.361010         0.403561         1.436727
 H        -0.709926         0.568665        -0.379365
 H        -0.606733        -0.935801         0.410543
 H         1.731339        -0.567506        -1.949964
 H         1.761012         1.267074        -1.612481
 H         4.378605         0.699122        -1.011184
 H         2.560736         2.222803         1.529946
