19
Iteration:  1745
 C         4.478613        -1.599076         0.968987
 C         3.319822        -0.792284         0.490733
 O         2.046798        -1.473990         0.210232
 C         1.427781        -0.198077         0.070316
 C         0.045066         0.127969         0.351851
 C         1.942744         0.316269        -1.258287
 C         3.332179         0.403850        -0.528780
 C         2.654527         0.459020         0.852467
 O         2.838090         1.276081         2.015702
 H         5.167850        -1.783164         0.077562
 H         5.047641        -1.045656         1.707697
 H         4.076369        -2.549299         1.407457
 H        -0.570765        -0.014496        -0.556516
 H        -0.445881        -0.467667         1.131407
 H        -0.134619         1.128048         0.753456
 H         1.939993        -0.370927        -2.153707
 H         1.542248         1.305661        -1.606976
 H         4.279301         0.723534        -0.915114
 H         3.295061         2.061580         1.610576
