19
Iteration:  3928charge 0 multiplicity 1
 C         4.462554        -1.677101         0.919404
 C         3.281587        -0.842779         0.448091
 O         1.991359        -1.482072         0.156667
 C         1.441699        -0.052462         0.013073
 C        -0.041214         0.094719         0.337055
 C         2.132461         0.525065        -1.182779
 C         3.470205         0.491326        -0.451745
 C         2.679319         0.422824         0.842670
 O         2.729965         1.109191         2.053024
 H         4.417429        -2.152793         1.887745
 H         4.390722        -2.509929         0.112837
 H         5.408796        -1.115094         0.776915
 H        -0.288934         0.859099         1.174997
 H        -0.706679         0.260632        -0.520463
 H        -0.349444        -0.832862         0.802580
 H         2.231739        -0.207926        -2.005560
 H         1.972713         1.543896        -1.538450
 H         4.397558         0.948639        -0.592983
 H         2.628029         2.064755         1.872441
