19
Iteration:  1919
 C         4.464438        -1.688283         0.980160
 C         3.302796        -0.874271         0.443114
 O         2.025917        -1.491658         0.282469
 C         1.421010        -0.106207         0.156288
 C         0.022446         0.186268         0.380623
 C         1.934315         0.266399        -1.293826
 C         3.330419         0.497913        -0.610031
 C         2.705222         0.519576         0.781242
 O         2.909008         1.225580         2.017035
 H         4.010811        -2.256621         1.810394
 H         4.661383        -2.384051         0.185134
 H         5.339070        -1.052354         1.237595
 H        -0.438884         0.147475         1.421295
 H         0.004015         1.242624         0.089651
 H        -0.419465        -0.520846        -0.328885
 H         1.863377        -0.414205        -2.123187
 H         1.464162         1.230218        -1.581259
 H         4.291535         0.900990        -1.022267
 H         2.866279         2.178811         1.906953
