19
Iteration:  1488charge 0 multiplicity 1
 C         4.443765        -1.672699         0.874053
 C         3.226735        -0.914102         0.402811
 O         1.908308        -1.368215        -0.069912
 C         1.455647         0.004720         0.051557
 C        -0.001232        -0.165418         0.516457
 C         2.292629         0.492251        -1.207637
 C         3.481156         0.459758        -0.312456
 C         2.647791         0.475209         0.861666
 O         2.686586         1.266148         2.019280
 H         5.008617        -1.079326         1.626378
 H         4.219697        -2.539698         1.462323
 H         5.222534        -2.031931         0.177366
 H         0.117822        -0.048711         1.576171
 H        -0.677740         0.525098         0.085549
 H        -0.226985        -1.185999         0.355451
 H         2.359147        -0.100618        -2.162494
 H         2.005372         1.508464        -1.463598
 H         4.473372         0.773493        -0.470094
 H         2.178415         2.097762         1.808928
