19
Iteration:  4901
 C         4.484204        -1.601837         0.783403
 C         3.232489        -0.851991         0.466438
 O         1.995184        -1.481023         0.125996
 C         1.402028        -0.068355        -0.031114
 C        -0.052888         0.089414         0.291995
 C         2.169221         0.499337        -1.210966
 C         3.452448         0.500701        -0.394063
 C         2.626658         0.423080         0.929661
 O         2.844766         1.143222         2.093969
 H         5.278952        -1.585897        -0.005895
 H         4.781759        -1.218190         1.724664
 H         4.169958        -2.656812         1.041363
 H        -0.682211        -0.769371         0.006661
 H        -0.178862         0.192183         1.412894
 H        -0.470623         1.063066        -0.035871
 H         2.198047        -0.162003        -2.059005
 H         1.702924         1.473868        -1.415125
 H         4.463975         0.751777        -0.614687
 H         2.294999         0.870300         2.829404
