19
Iteration:  3897charge 0 multiplicity 1
 C         4.445156        -1.636409         0.713931
 C         3.257538        -0.753906         0.504569
 O         1.966908        -1.402779         0.247436
 C         1.357980        -0.119973         0.009066
 C        -0.063110         0.031980         0.073242
 C         2.131650         0.398094        -1.199647
 C         3.426189         0.452165        -0.443261
 C         2.792797         0.528080         0.964355
 O         2.833234         1.115149         2.312489
 H         4.817411        -1.991743         1.645627
 H         4.250777        -2.590876         0.150323
 H         5.361578        -1.168347         0.304417
 H        -0.308320         1.211529         0.341127
 H        -0.664032        -0.216275        -0.895312
 H        -0.623539        -0.572405         0.795591
 H         2.214303        -0.397153        -1.953297
 H         1.756141         1.379843        -1.678686
 H         4.391317         0.527216        -0.821811
 H         2.589547         2.057010         2.139414
