19
Iteration:  1743
 C         4.470774        -1.603792         0.966475
 C         3.333129        -0.790481         0.486444
 O         2.053664        -1.475793         0.220381
 C         1.427047        -0.191144         0.076319
 C         0.051252         0.129869         0.352971
 C         1.945436         0.322577        -1.264008
 C         3.322314         0.404978        -0.528843
 C         2.658043         0.435237         0.837217
 O         2.834158         1.278372         2.011054
 H         5.132421        -1.852268         0.086794
 H         5.085563        -0.998464         1.741019
 H         4.081431        -2.554372         1.417627
 H        -0.608443         0.025852        -0.538141
 H        -0.501964        -0.481863         1.128264
 H        -0.109953         1.157415         0.766204
 H         2.022844        -0.359732        -2.159470
 H         1.473786         1.333435        -1.556989
 H         4.274231         0.788391        -0.822749
 H         3.214155         2.045713         1.552756
