19
Iteration:  4081charge 0 multiplicity 1
 C         4.525086        -1.567983         0.829560
 C         3.184299        -0.827869         0.596949
 O         1.913274        -1.480315         0.249226
 C         1.416567        -0.130277         0.091098
 C        -0.035982         0.120565         0.240081
 C         2.066665         0.388670        -1.201884
 C         3.423787         0.387385        -0.445030
 C         2.709630         0.496119         0.849318
 O         2.913902         1.141467         2.020514
 H         4.656611        -1.971005        -0.194415
 H         5.386697        -0.790321         1.071696
 H         4.431726        -2.318271         1.653398
 H        -0.655932         0.322843         1.143399
 H        -0.304412         0.928050        -0.441312
 H        -0.479808        -0.688024        -0.263285
 H         1.886196        -0.280425        -2.105529
 H         1.628862         1.408178        -1.468717
 H         4.475944         0.766495        -0.640356
 H         3.023073         2.072514         1.853050
