19
Iteration:  2966charge 0 multiplicity 1
 C         4.221346        -1.613311         1.357473
 C         3.254042        -0.847827         0.508087
 O         1.996085        -1.516912         0.345995
 C         1.504360        -0.111856         0.108710
 C         0.161014         0.087305         0.713134
 C         1.769324         0.282747        -1.414251
 C         3.310354         0.304059        -0.783752
 C         2.785246         0.533724         0.625396
 O         3.029573         1.439962         1.640125
 H         4.737779        -1.147823         2.280610
 H         3.683553        -2.534248         1.832510
 H         5.156943        -2.025129         0.809889
 H         0.083232        -0.704585         1.402246
 H         0.046690         1.172652         0.808434
 H        -0.562180        -0.087586        -0.098130
 H         1.659757        -0.528809        -2.202140
 H         1.522867         1.350925        -1.600280
 H         4.350998         0.359058        -1.290384
 H         3.607242         2.200168         1.323648
