19
Iteration:  2812charge 0 multiplicity 1
 C         4.384791        -1.629016         1.224276
 C         3.241778        -0.915986         0.495812
 O         1.926833        -1.444441         0.237892
 C         1.472317        -0.094036         0.067488
 C         0.055741         0.032852         0.812200
 C         1.965864         0.288012        -1.314925
 C         3.380601         0.275216        -0.664184
 C         2.790481         0.503642         0.666097
 O         2.859823         1.528969         1.570729
 H         5.405020        -1.584554         0.727756
 H         4.533557        -1.286221         2.332983
 H         4.129510        -2.743155         1.153584
 H         0.078131        -0.154775         1.913155
 H        -0.170182         1.113835         0.713605
 H        -0.681142        -0.528505         0.220687
 H         1.681471        -0.379959        -2.192835
 H         1.680289         1.311652        -1.617212
 H         4.265357         0.476899        -1.201353
 H         3.752004         1.341437         1.984394
