19
Iteration:  2519
 C         4.383816        -1.756363         0.997359
 C         3.284943        -0.927927         0.479489
 O         1.913711        -1.448778         0.414864
 C         1.397288        -0.072102         0.225877
 C        -0.130798         0.075332         0.522831
 C         1.901690         0.208384        -1.263340
 C         3.341332         0.252554        -0.559551
 C         2.789228         0.541382         0.744332
 O         3.208695         1.668083         1.560466
 H         4.049572        -2.669006         1.583047
 H         5.140748        -2.034569         0.277587
 H         4.965348        -1.098223         1.716909
 H        -0.365195        -0.503354         1.401328
 H        -0.433633         1.120392         0.538143
 H        -0.591114        -0.460668        -0.322497
 H         1.572499        -0.486013        -2.050073
 H         1.738309         1.228688        -1.571925
 H         4.328712         0.428041        -0.988897
 H         2.800970         1.563410         2.470375
