19
Iteration:  3525
 C         4.376632        -1.659941         0.937892
 C         3.256236        -0.811644         0.495302
 O         1.982188        -1.439992         0.215386
 C         1.446558        -0.076669         0.042895
 C        -0.015484         0.175674         0.384635
 C         2.103408         0.354505        -1.318660
 C         3.368531         0.437755        -0.459823
 C         2.661169         0.460946         0.839887
 O         2.941085         1.113732         2.003116
 H         4.206323        -2.068582         1.950388
 H         4.504849        -2.286476         0.030030
 H         5.308552        -1.076125         0.948234
 H        -0.547679        -0.640820        -0.085629
 H        -0.235222         0.260454         1.423775
 H        -0.424839         1.091045        -0.036595
 H         2.096428        -0.375072        -2.149791
 H         1.730073         1.370656        -1.509866
 H         4.358242         0.741134        -0.685083
 H         2.635045         2.066986         1.988130
