19
Iteration:  1543
 C         4.415778        -1.773685         0.961900
 C         3.444747        -0.829658         0.380907
 O         2.122495        -1.457173         0.054148
 C         1.481111        -0.130016         0.176930
 C         0.045695         0.061213         0.343695
 C         2.016919         0.514556        -1.226299
 C         3.370464         0.574472        -0.516080
 C         2.678972         0.370901         0.897067
 O         2.580987         1.242686         2.032288
 H         4.525585        -1.558257         2.033350
 H         3.886782        -2.757500         1.005824
 H         5.424419        -1.858649         0.526935
 H        -0.285519        -0.025197         1.369804
 H        -0.077486         1.106416         0.126633
 H        -0.637810        -0.612624        -0.147370
 H         1.919791        -0.212834        -2.073087
 H         1.590412         1.517013        -1.399129
 H         4.228000         1.187568        -0.601528
 H         3.488338         1.629380         1.984635
