19
Iteration:    56
 C         4.359859        -1.877880         0.744446
 C         3.303276        -0.854427         0.414522
 O         2.079215        -1.427187        -0.150943
 C         1.508420        -0.071861        -0.042051
 C         0.083341         0.045534         0.332589
 C         2.278908         0.835755        -1.089855
 C         3.537148         0.687888        -0.174559
 C         2.682098         0.376241         0.944289
 O         2.425192         1.029049         2.128492
 H         3.876473        -2.699687         1.309840
 H         4.400517        -2.346973        -0.258976
 H         5.298938        -1.716560         1.161708
 H        -0.073065         0.701440         1.162749
 H        -0.586222         0.478412        -0.396053
 H        -0.375181        -0.844459         0.671431
 H         2.353191         0.549314        -2.082650
 H         1.891983         1.816520        -1.059704
 H         4.573705         0.725438        -0.206265
 H         2.294914         0.455086         2.926623
