19
Iteration:  2956
 C         4.259721        -1.604656         1.313339
 C         3.232539        -0.821230         0.510828
 O         1.943379        -1.442983         0.367524
 C         1.431813        -0.107698         0.069067
 C         0.120980         0.037386         0.643345
 C         1.895386         0.231587        -1.341086
 C         3.306596         0.247371        -0.732535
 C         2.810986         0.570087         0.614191
 O         3.057474         1.434670         1.638555
 H         4.629010        -0.938372         2.159252
 H         3.753716        -2.545860         1.665611
 H         5.083875        -1.939132         0.612065
 H         0.065559        -0.522741         1.553886
 H        -0.082245         1.012596         1.101680
 H        -0.664888        -0.322720        -0.040868
 H         1.540058        -0.553215        -2.060086
 H         1.586537         1.197449        -1.787101
 H         4.171858         0.752472        -1.269982
 H         3.973512         1.801677         1.463783
