19
Iteration:  4019charge 0 multiplicity 1
 C         4.276870        -1.689384         0.973474
 C         3.243168        -0.774523         0.455805
 O         2.039858        -1.379806         0.111685
 C         1.399712        -0.074586        -0.053644
 C        -0.021522        -0.077927         0.418648
 C         2.110962         0.490784        -1.230734
 C         3.423348         0.450901        -0.459099
 C         2.687238         0.494594         0.844568
 O         2.924082         1.183006         2.045620
 H         4.028354        -2.787640         0.944317
 H         5.214856        -1.725175         0.429399
 H         4.486434        -1.543812         2.055936
 H        -0.171192         0.445776         1.419817
 H        -0.607653         0.308108        -0.486915
 H        -0.225704        -1.212477         0.496874
 H         2.094813        -0.169781        -2.081975
 H         1.668662         1.476902        -1.483854
 H         4.476749         0.829265        -0.704809
 H         2.941733         2.131171         1.935805
