19
Iteration:   543charge 0 multiplicity 1
 C         4.328910        -1.802110         0.846106
 C         3.294404        -0.865138         0.389099
 O         2.041138        -1.381585        -0.175640
 C         1.482149        -0.104845        -0.058042
 C         0.005765        -0.078088         0.159949
 C         2.188968         0.880665        -1.022898
 C         3.456146         0.687861        -0.218370
 C         2.620839         0.313046         1.003508
 O         2.695870         1.022579         2.169701
 H         4.045228        -2.515830         1.620132
 H         4.887731        -2.264077        -0.019492
 H         5.144676        -1.290123         1.303300
 H        -0.325980        -0.745977         0.937520
 H        -0.335828         0.891940         0.455038
 H        -0.564416        -0.472020        -0.686811
 H         2.136827         0.679691        -2.108975
 H         1.900530         1.853534        -0.806131
 H         4.436059         1.250102        -0.177987
 H         3.117153         0.419209         2.807831
