19
Iteration:  2206charge 0 multiplicity 1
 C         4.413178        -1.684089         0.999919
 C         3.319573        -0.929905         0.410325
 O         1.927389        -1.452413         0.442638
 C         1.407745        -0.100928         0.241964
 C        -0.007893         0.243402         0.424042
 C         1.900459         0.233378        -1.306381
 C         3.291643         0.312926        -0.628698
 C         2.757938         0.454536         0.794729
 O         3.037511         1.373680         1.790064
 H         4.454256        -1.664927         2.088738
 H         4.563744        -2.718918         0.778704
 H         5.344357        -1.175482         0.678443
 H        -0.417707         0.221537         1.446074
 H        -0.080263         1.337742         0.075472
 H        -0.683828        -0.444888        -0.162616
 H         1.737000        -0.398609        -2.205632
 H         1.677419         1.256838        -1.510157
 H         4.162758         0.809008        -1.130081
 H         3.576576         2.117998         1.425145
