19
Iteration:   508
 C         4.272036        -1.803404         0.702020
 C         3.276481        -0.754991         0.421085
 O         2.081197        -1.222363        -0.190595
 C         1.497156         0.054704        -0.006881
 C        -0.062225        -0.202953         0.261242
 C         2.314189         0.745935        -1.190444
 C         3.545318         0.520588        -0.303885
 C         2.626731         0.433281         1.045238
 O         2.555131         0.963725         2.427427
 H         3.842785        -2.788078         1.097864
 H         4.604423        -2.164206        -0.359627
 H         5.109285        -1.238424         1.317315
 H        -0.176063        -0.089673         1.378531
 H        -0.668920         0.350074        -0.460299
 H        -0.187681        -1.283294        -0.110547
 H         2.214634         0.207385        -2.105089
 H         2.184067         1.911527        -1.436885
 H         4.561335         0.928844        -0.601608
 H         3.453943         0.834676         2.788567
