19
Iteration:  1281charge 0 multiplicity 1
 C         4.566293        -1.578873         0.792511
 C         3.212996        -0.914696         0.425802
 O         2.110933        -1.525787        -0.078828
 C         1.413324        -0.092703        -0.035230
 C        -0.050418         0.024159         0.317782
 C         2.223203         0.564173        -1.140945
 C         3.441035         0.418162        -0.251742
 C         2.629204         0.354707         1.031934
 O         2.578050         1.223868         2.146121
 H         4.343197        -2.257948         1.684079
 H         4.799187        -2.017460        -0.144224
 H         5.156494        -0.697789         1.026914
 H        -0.554361        -0.782446         0.896000
 H        -0.214673         1.018178         0.840328
 H        -0.757289         0.122162        -0.566504
 H         2.248161         0.133695        -2.205162
 H         1.955846         1.586723        -1.206111
 H         4.469058         0.844066        -0.516182
 H         3.062106         2.007132         1.867138
