19
Iteration:  1333
 C         4.323549        -1.819615         0.913399
 C         3.370223        -0.709014         0.405067
 O         2.200830        -1.439128         0.060995
 C         1.549305        -0.072502         0.073032
 C         0.010495        -0.151595         0.388198
 C         2.146145         0.642471        -1.239907
 C         3.447535         0.529216        -0.575148
 C         2.731598         0.517927         0.904879
 O         2.470192         1.130321         2.132930
 H         3.617784        -2.671013         0.827088
 H         5.247575        -1.733134         0.458913
 H         4.343344        -1.612314         1.967068
 H        -0.484771        -1.040457         0.627872
 H        -0.134269         0.480437         1.217885
 H        -0.569717         0.184855        -0.418828
 H         1.901619         0.044541        -2.156777
 H         1.708221         1.634189        -1.224857
 H         4.508548         0.892040        -0.554929
 H         2.947969         1.956614         2.147179
