19
Iteration:  3656charge 0 multiplicity 1
 C         4.198121        -1.875008         1.004581
 C         3.371566        -0.811130         0.409648
 O         1.990979        -1.376669         0.076294
 C         1.431407        -0.061952         0.082994
 C        -0.128574        -0.268130         0.305982
 C         2.106795         0.733184        -1.146586
 C         3.422834         0.424426        -0.484976
 C         2.788239         0.494250         0.902584
 O         2.970876         1.271285         1.989009
 H         5.264337        -1.765935         0.733819
 H         3.935120        -1.731373         2.138599
 H         3.717124        -2.796088         0.532381
 H        -0.309078         0.403169         1.203209
 H        -0.803721         0.020820        -0.492608
 H        -0.205230        -1.357832         0.511663
 H         1.978631         0.675236        -2.261298
 H         2.035005         1.854946        -0.962661
 H         4.429712         0.989756        -0.637002
 H         3.056843         2.203722         1.726862
