19
Iteration:  4498charge 0 multiplicity 1
 C         4.174853        -1.814139         1.103036
 C         3.283082        -0.780396         0.415637
 O         2.103340        -1.416222        -0.023260
 C         1.487892        -0.050390         0.014761
 C         0.106341        -0.225424         0.557453
 C         2.079499         0.585950        -1.335701
 C         3.435510         0.474482        -0.460543
 C         2.626682         0.489398         0.846105
 O         2.786846         1.388539         1.924677
 H         4.102554        -2.788102         0.497255
 H         5.148540        -1.420017         1.021404
 H         4.064212        -2.145630         2.199883
 H        -0.480781        -1.048420         0.122292
 H         0.150313        -0.173001         1.699858
 H        -0.466601         0.731559         0.410009
 H         1.916806        -0.027044        -2.177561
 H         1.992844         1.691138        -1.475699
 H         4.412608         0.941934        -0.572178
 H         3.354515         0.978219         2.576446
