19
Iteration:  4306charge 0 multiplicity 1
 C         4.333242        -1.728979         1.136172
 C         3.257165        -0.866057         0.436109
 O         2.055138        -1.405827        -0.003184
 C         1.395793        -0.030672        -0.007420
 C         0.080880        -0.125324         0.518823
 C         2.042406         0.480478        -1.285452
 C         3.394069         0.373680        -0.478427
 C         2.738220         0.490833         0.839340
 O         2.781387         1.351552         1.968490
 H         4.086181        -2.829322         1.035028
 H         5.325172        -1.508113         0.560661
 H         4.437219        -1.579324         2.219309
 H        -0.562170        -0.391348        -0.296316
 H         0.057031        -0.808728         1.303908
 H        -0.288563         0.873902         0.925304
 H         1.844785        -0.061073        -2.264764
 H         1.832769         1.563124        -1.327129
 H         4.395498         0.831522        -0.750509
 H         3.347889         2.091188         1.662874
