19
Iteration:  2751
 C         4.492468        -1.540876         1.035407
 C         3.221598        -0.857122         0.515720
 O         1.906799        -1.432685         0.513419
 C         1.341064        -0.029262         0.059163
 C        -0.010597         0.081910         0.494990
 C         1.959515         0.129216        -1.354230
 C         3.311991         0.319203        -0.638509
 C         2.704860         0.478188         0.711785
 O         3.170214         1.424498         1.679475
 H         5.316519        -1.294736         0.415477
 H         4.634126        -1.326709         2.052043
 H         4.312993        -2.591880         1.028014
 H        -0.254138        -0.615454         1.279732
 H        -0.265938         1.090755         0.908721
 H        -0.791387        -0.075357        -0.268770
 H         1.709675        -0.784977        -1.853698
 H         1.544582         0.997800        -1.855499
 H         4.239108         0.831365        -0.888192
 H         2.844904         1.370809         2.627678
