19
Iteration:   783
 C         4.542716        -1.503632         0.924329
 C         3.324309        -0.853434         0.372774
 O         2.079698        -1.440637        -0.148155
 C         1.416589        -0.086026         0.022072
 C        -0.027657         0.053760         0.233032
 C         2.126817         0.715845        -1.146811
 C         3.446033         0.457007        -0.316560
 C         2.646924         0.273128         0.942437
 O         2.561883         0.921054         2.247461
 H         4.393789        -1.931928         1.892377
 H         5.093796        -2.307597         0.397059
 H         5.273722        -0.707479         0.989614
 H        -0.160129         0.993599         0.820475
 H        -0.524529         0.246957        -0.751050
 H        -0.518968        -0.836741         0.739340
 H         2.067788         0.152451        -2.078954
 H         1.617867         1.698875        -1.331158
 H         4.399590         1.052969        -0.410798
 H         3.139463         1.693268         2.198166
