19
Iteration:  2326charge 0 multiplicity 1
 C         4.199084        -1.771935         1.125033
 C         3.227382        -0.905425         0.443980
 O         1.928952        -1.401711         0.270069
 C         1.461173        -0.077203         0.212744
 C        -0.039280        -0.027149         0.608156
 C         1.967317         0.338434        -1.238222
 C         3.357534         0.268544        -0.596854
 C         2.848580         0.573582         0.722262
 O         3.156229         1.582180         1.550452
 H         4.002231        -2.163032         2.070751
 H         4.629019        -2.519286         0.534368
 H         5.107362        -1.198044         1.266182
 H        -0.241600        -0.552565         1.548214
 H        -0.097922         1.077700         0.842598
 H        -0.843041        -0.327216        -0.072133
 H         1.744787        -0.498507        -1.927541
 H         1.796968         1.301269        -1.640690
 H         4.346314         0.462633        -0.981174
 H         2.706044         1.197669         2.320474
