19
Iteration:  4672charge 0 multiplicity 1
 C         4.251308        -1.827181         0.982431
 C         3.291374        -0.860057         0.408087
 O         2.093979        -1.429994        -0.080154
 C         1.424973        -0.077052        -0.024385
 C         0.017971        -0.201464         0.477504
 C         2.112142         0.707015        -1.114158
 C         3.456760         0.429524        -0.428164
 C         2.723041         0.464066         0.906833
 O         2.826983         1.408727         1.946541
 H         5.071395        -2.068267         0.233478
 H         4.774499        -1.526160         1.851030
 H         3.642637        -2.702934         1.412346
 H        -0.362871        -1.217877         0.313775
 H         0.049526        -0.162141         1.641347
 H        -0.665994         0.507515         0.083664
 H         2.117349         0.371478        -2.216158
 H         1.687983         1.787169        -1.177703
 H         4.408943         0.900639        -0.578752
 H         1.985529         1.281189         2.491603
