19
Iteration:  1218charge 0 multiplicity 1
 C         4.239860        -1.629007         0.916667
 C         3.309894        -0.652575         0.393093
 O         2.064065        -1.331486        -0.023044
 C         1.434224        -0.073984        -0.064986
 C        -0.067829        -0.243993         0.213969
 C         2.174855         0.572150        -1.256790
 C         3.430042         0.596964        -0.396155
 C         2.671683         0.536733         0.980665
 O         2.888603         0.937456         2.328883
 H         4.270608        -1.811304         1.989996
 H         4.100895        -2.539338         0.339545
 H         5.299620        -1.557714         0.654818
 H        -0.467599        -0.241441         1.254569
 H        -0.514945         0.596299        -0.343147
 H        -0.249761        -1.265087        -0.211688
 H         2.259650        -0.077624        -2.137061
 H         1.734421         1.543334        -1.422555
 H         4.431727         1.099433        -0.482877
 H         2.352042         1.723371         2.462273
