19
Iteration:  2369charge 0 multiplicity 1
 C         4.409541        -1.604421         0.972204
 C         3.193429        -0.825017         0.540886
 O         1.917238        -1.385061         0.463601
 C         1.344943        -0.134692         0.104992
 C        -0.155773         0.140087         0.446430
 C         1.941005         0.192504        -1.299908
 C         3.374420         0.223543        -0.643572
 C         2.800017         0.590485         0.725243
 O         3.164437         1.402065         1.791351
 H         4.494196        -1.632906         2.043451
 H         4.418437        -2.621905         0.711275
 H         5.328761        -1.069440         0.619770
 H        -0.573870        -0.353375         1.292273
 H        -0.131707         1.226430         0.578017
 H        -0.615189        -0.128166        -0.489144
 H         1.661065        -0.617584        -2.032608
 H         1.701619         1.156008        -1.714312
 H         4.367255         0.231498        -1.074973
 H         3.916170         0.996524         2.265158
