19
Iteration:  2469charge 0 multiplicity 1
 C         4.262583        -1.874693         1.051283
 C         3.254505        -0.897861         0.519599
 O         1.968770        -1.477207         0.289715
 C         1.426210        -0.018532         0.076334
 C         0.008156         0.022492         0.804427
 C         2.029250         0.323360        -1.242371
 C         3.440942         0.176528        -0.625770
 C         2.788123         0.567927         0.691191
 O         2.943088         1.743479         1.518129
 H         3.723202        -2.541462         1.683988
 H         4.770067        -2.439668         0.252836
 H         5.081727        -1.504774         1.656691
 H         0.288009        -0.080732         1.871442
 H        -0.412156         0.975036         0.466389
 H        -0.477913        -0.895901         0.506440
 H         1.779692        -0.402238        -2.039561
 H         1.755620         1.345904        -1.580051
 H         4.376822         0.610858        -1.053408
 H         2.776349         1.538757         2.426172
