19
Iteration:  2451
 C         4.323083        -1.781745         1.000959
 C         3.214150        -0.889623         0.441086
 O         1.861523        -1.347447         0.330167
 C         1.477580        -0.052846         0.134974
 C         0.152079         0.098933         0.746261
 C         2.078229         0.197729        -1.415963
 C         3.333158         0.216457        -0.566859
 C         2.737500         0.503005         0.836595
 O         2.950487         1.620761         1.565026
 H         4.022850        -2.322969         1.926838
 H         4.784726        -2.534236         0.304026
 H         5.170234        -1.128288         1.211981
 H         0.362462        -0.094105         1.866820
 H        -0.480133         0.979554         0.462714
 H        -0.496751        -0.871882         0.629504
 H         1.925946        -0.534270        -2.211452
 H         1.823497         1.212732        -1.831440
 H         4.401617         0.367980        -0.758899
 H         2.468658         1.506611         2.367804
