19
Iteration:   383
 C         4.183901        -1.855465         0.832594
 C         3.339455        -0.744427         0.374911
 O         2.167413        -1.322625        -0.124443
 C         1.507981         0.001456         0.002542
 C        -0.047639        -0.079218         0.148575
 C         2.179841         0.867664        -1.178775
 C         3.436957         0.673650        -0.301135
 C         2.714681         0.413458         1.021372
 O         2.742278         0.757111         2.369860
 H         3.439092        -2.563806         1.332444
 H         4.442028        -2.230575        -0.179989
 H         5.049289        -1.659387         1.402384
 H        -0.432388         0.797660        -0.380390
 H        -0.264321        -1.042451        -0.413451
 H        -0.287109        -0.102342         1.176265
 H         2.109077         0.348180        -2.184018
 H         1.970383         1.955193        -1.289360
 H         4.409012         1.295721        -0.267841
 H         2.004697         1.358142         2.512997
