19
Iteration:  4051charge 0 multiplicity 1
 C         4.555970        -1.614423         0.850922
 C         3.297579        -0.858562         0.417306
 O         1.980867        -1.528537         0.294160
 C         1.325401        -0.097530         0.006568
 C        -0.115907         0.171921         0.191945
 C         2.051110         0.471700        -1.229695
 C         3.357348         0.371943        -0.462985
 C         2.745832         0.453669         0.962932
 O         2.946577         1.201166         2.122204
 H         4.448356        -2.682350         0.434008
 H         5.517525        -1.146937         0.557015
 H         4.557238        -1.679618         1.982612
 H        -0.784204         0.546773         1.010741
 H        -0.506610         0.669753        -0.756475
 H        -0.487265        -0.881850        -0.041905
 H         1.917532        -0.214144        -2.048270
 H         1.552501         1.452753        -1.449919
 H         4.444792         0.680331        -0.693038
 H         2.664020         2.140542         1.944196
