19
Iteration:   329charge 0 multiplicity 1
 C         4.382043        -1.662737         0.874105
 C         3.185173        -0.870483         0.411168
 O         2.010449        -1.371189        -0.200919
 C         1.422014         0.016173        -0.121397
 C        -0.070064        -0.099869         0.085304
 C         2.308987         0.979394        -1.055317
 C         3.457195         0.520940        -0.141157
 C         2.521751         0.284825         1.033471
 O         2.827551         0.824054         2.266657
 H         4.006069        -2.479679         1.568847
 H         4.909174        -2.239000         0.087021
 H         5.027578        -0.957364         1.297444
 H        -0.633791         0.786262         0.376404
 H        -0.540951        -0.371033        -0.895736
 H        -0.159670        -0.856783         0.828919
 H         2.210333         0.759257        -2.040388
 H         2.072894         2.035696        -0.803608
 H         4.566021         0.914867        -0.184336
 H         3.407947         1.569715         2.109106
