19
Iteration:   489charge 0 multiplicity 1
 C         4.360158        -1.830314         0.653746
 C         3.287793        -0.741321         0.418725
 O         2.074773        -1.368938        -0.080969
 C         1.508976         0.031984        -0.010814
 C         0.016851        -0.057963         0.218095
 C         2.232289         0.779998        -1.125832
 C         3.507747         0.647009        -0.283286
 C         2.702260         0.436585         1.007662
 O         2.467687         0.876319         2.306628
 H         3.908498        -2.660192         1.128730
 H         4.727966        -2.381973        -0.198162
 H         5.151197        -1.552323         1.257056
 H        -0.248102         0.480484         1.108242
 H        -0.624645         0.306300        -0.579032
 H        -0.264322        -1.079728         0.425660
 H         2.216384         0.269655        -2.094521
 H         1.953670         1.748826        -1.166727
 H         4.576104         1.026628        -0.395662
 H         3.286692         0.974298         2.796721
