19
Iteration:  1682
 C         4.367526        -1.711206         0.988109
 C         3.271113        -0.827886         0.452651
 O         1.991903        -1.417464         0.147957
 C         1.457880         0.066897        -0.008631
 C         0.052930        -0.143729         0.597087
 C         2.093001         0.427949        -1.309703
 C         3.464341         0.314051        -0.539371
 C         2.695776         0.520934         0.824736
 O         2.746213         1.397667         1.962552
 H         4.215072        -2.774703         0.718954
 H         5.229837        -1.499372         0.476489
 H         4.622854        -1.528686         2.007504
 H        -0.383322        -0.469282        -0.331152
 H         0.342753        -0.889794         1.278417
 H        -0.318179         0.776932         0.976918
 H         2.070870        -0.244619        -2.143287
 H         2.032927         1.423615        -1.716954
 H         4.500169         0.540846        -0.795145
 H         1.808908         1.667440         2.130018
