19
Iteration:  4757charge 0 multiplicity 1
 C         4.539089        -1.571592         0.857346
 C         3.269432        -0.824344         0.421208
 O         2.018322        -1.489271         0.292678
 C         1.448987        -0.023569         0.072181
 C        -0.024896         0.193291         0.141490
 C         2.050394         0.438228        -1.324848
 C         3.373655         0.541614        -0.406308
 C         2.709823         0.473496         0.882742
 O         2.700397         0.972907         2.140681
 H         4.603839        -2.547021         0.311961
 H         5.229982        -0.810094         0.491418
 H         4.835501        -1.629101         1.973452
 H        -0.420825        -0.049566        -0.882555
 H        -0.503346        -0.462308         1.041625
 H        -0.326800         1.100362         0.598493
 H         2.047098        -0.213718        -2.209267
 H         1.839446         1.514911        -1.425401
 H         4.389168         0.832104        -0.641562
 H         3.165672         0.236334         2.521388
