19
Iteration:  2280
 C         4.337317        -1.791265         0.961557
 C         3.213921        -0.968170         0.574543
 O         1.924992        -1.462227         0.350473
 C         1.464970        -0.136254         0.155321
 C         0.069401         0.242435         0.711276
 C         2.036192         0.327121        -1.245604
 C         3.375000         0.248696        -0.662429
 C         2.826819         0.489980         0.693716
 O         2.937581         1.527109         1.605711
 H         4.034890        -2.637457         1.590674
 H         4.954706        -2.184017         0.193341
 H         5.090487        -1.343605         1.625825
 H        -0.102984         0.385150         1.757869
 H        -0.255610         1.073720         0.075602
 H        -0.680149        -0.553238         0.510007
 H         1.887143        -0.304187        -2.142823
 H         1.706672         1.375817        -1.375234
 H         4.367399         0.634415        -0.998401
 H         2.084535         2.005575         1.627923
