19
Iteration:  2246charge 0 multiplicity 1
 C         4.430242        -1.706734         0.789923
 C         3.174948        -0.831361         0.584248
 O         1.887560        -1.302227         0.424572
 C         1.466026        -0.032679         0.074816
 C         0.091920         0.248951         0.650366
 C         2.090806         0.044329        -1.367839
 C         3.327234         0.127903        -0.636594
 C         2.727176         0.572534         0.731411
 O         2.930019         1.379230         1.885802
 H         4.174954        -2.506313         1.571021
 H         4.782284        -2.277231        -0.080880
 H         5.194822        -1.046310         1.245183
 H         0.086280         0.586784         1.676213
 H        -0.315827         1.063454         0.089830
 H        -0.530640        -0.620013         0.398841
 H         1.833867        -0.836327        -1.983060
 H         1.872026         0.959996        -1.998568
 H         4.275043         0.557434        -0.990740
 H         2.610415         2.254387         1.628971
