19
Iteration:    22charge 0 multiplicity 1
 C         4.298041        -1.852611         0.731596
 C         3.255618        -0.792926         0.416276
 O         2.065789        -1.287493        -0.204854
 C         1.493034         0.075865        -0.009347
 C         0.008071        -0.103163         0.311831
 C         2.321631         0.676910        -1.209015
 C         3.583099         0.579276        -0.243718
 C         2.658535         0.445452         1.039991
 O         2.504009         1.045562         2.305480
 H         3.859372        -2.635124         1.334433
 H         4.553735        -2.303144        -0.225788
 H         5.245488        -1.525311         1.175968
 H        -0.041908        -0.214862         1.362517
 H        -0.585670         0.731008        -0.032582
 H        -0.298789        -1.019429        -0.187372
 H         2.383439         0.072670        -2.033655
 H         2.196145         1.716025        -1.546584
 H         4.625011         0.880368        -0.386720
 H         2.289361         0.276707         2.908347
