19
Iteration:  3199charge 0 multiplicity 1
 C         4.378644        -1.586227         1.121147
 C         3.152775        -0.881530         0.536794
 O         1.965215        -1.550515         0.412923
 C         1.427338        -0.047767         0.087387
 C         0.114113         0.350254         0.516355
 C         1.969389         0.109635        -1.402853
 C         3.354085         0.205808        -0.649386
 C         2.757591         0.515273         0.738087
 O         2.897343         1.398920         1.754182
 H         4.893315        -0.766632         1.720263
 H         4.173888        -2.539772         1.685795
 H         5.189589        -1.774254         0.344698
 H        -0.284775        -0.420370         1.202431
 H         0.149942         1.292784         0.995303
 H        -0.602953         0.444512        -0.257024
 H         1.830718        -0.810047        -1.978038
 H         1.728998         1.090112        -1.884339
 H         4.373797         0.376597        -1.138754
 H         3.656768         1.981867         1.696415
