19
Iteration:  3236charge 0 multiplicity 1
 C         4.552578        -1.774241         0.924628
 C         3.278414        -0.969157         0.606884
 O         1.841154        -1.477015         0.550603
 C         1.407977        -0.041663         0.083634
 C        -0.079863         0.242430         0.357907
 C         2.060137         0.229396        -1.305686
 C         3.316362         0.148261        -0.531132
 C         2.714146         0.481700         0.825420
 O         2.966593         1.594275         1.697746
 H         5.071737        -1.031025         1.592409
 H         4.561124        -2.808704         1.378648
 H         5.289967        -1.782620         0.092488
 H        -0.503087        -0.606560         0.889817
 H        -0.145128         1.175551         1.019655
 H        -0.675592         0.358709        -0.603719
 H         1.836463        -0.531175        -2.098126
 H         1.934748         1.263360        -1.669611
 H         4.325161         0.440384        -0.740884
 H         3.142181         2.284615         1.068156
