19
Iteration:  1483
 C         4.474854        -1.708081         0.874242
 C         3.191803        -0.878211         0.442031
 O         1.961557        -1.392299        -0.071185
 C         1.456884        -0.015571         0.032742
 C        -0.019312        -0.158897         0.473916
 C         2.224426         0.483043        -1.224514
 C         3.471116         0.498665        -0.343802
 C         2.690375         0.490027         0.897087
 O         2.709174         1.264359         2.041919
 H         4.955736        -0.968383         1.536661
 H         4.053258        -2.526882         1.545451
 H         5.131682        -2.201672         0.142134
 H         0.137925         0.093494         1.564214
 H        -0.811052         0.583240         0.130420
 H        -0.378641        -1.211430         0.234622
 H         2.291620        -0.194372        -2.054612
 H         2.046350         1.535610        -1.533361
 H         4.565291         0.807007        -0.422991
 H         2.155726         2.040162         1.928368
