19
Iteration:  4141
 C         4.190370        -1.797394         1.176780
 C         3.264222        -0.833425         0.456582
 O         2.122998        -1.435468         0.077511
 C         1.492623        -0.026650        -0.009754
 C         0.124993        -0.117639         0.565656
 C         1.977800         0.591423        -1.241995
 C         3.420377         0.435991        -0.519065
 C         2.721305         0.451751         0.826977
 O         2.851491         1.302376         1.827680
 H         4.995139        -2.166600         0.442782
 H         4.688564        -1.650017         2.074865
 H         3.575138        -2.717762         1.200933
 H        -0.002094        -1.004589         1.136567
 H        -0.015579         0.864700         1.042188
 H        -0.683257        -0.123495        -0.320415
 H         1.773993         0.054182        -2.146803
 H         1.701491         1.628770        -1.280633
 H         4.243613         1.074992        -0.672898
 H         2.605671         2.160811         1.401626
