19
Iteration:   560charge 0 multiplicity 1
 C         4.411681        -1.736372         0.877740
 C         3.312670        -0.842595         0.342279
 O         2.191245        -1.486293        -0.198877
 C         1.465355        -0.070422         0.003212
 C        -0.075073         0.053962         0.146792
 C         2.101029         0.908588        -1.022990
 C         3.413433         0.536908        -0.271682
 C         2.644275         0.298218         0.978214
 O         2.716627         1.007498         2.214014
 H         3.970658        -2.493525         1.597999
 H         4.757906        -2.542001         0.234899
 H         5.311176        -1.199000         1.406272
 H        -0.597442        -0.826081         0.650083
 H        -0.223108         0.931171         0.842937
 H        -0.544637         0.217936        -0.878037
 H         2.045900         0.688307        -2.118308
 H         1.652884         1.980677        -0.691222
 H         4.347086         1.073441        -0.389691
 H         2.246419         0.484037         2.880557
