19
Iteration:  3004
 C         4.339056        -1.650471         1.238382
 C         3.323629        -0.873945         0.453911
 O         1.940769        -1.510648         0.300142
 C         1.430846        -0.079021         0.131990
 C         0.117186         0.219399         0.749806
 C         1.969286         0.201329        -1.326099
 C         3.440506         0.195807        -0.656621
 C         2.689492         0.457665         0.647075
 O         2.953703         1.520481         1.525773
 H         4.946624        -0.993059         1.798570
 H         3.760888        -2.292484         1.845463
 H         4.921968        -2.270181         0.617695
 H        -0.081846        -0.252470         1.755373
 H         0.003145         1.282109         0.982219
 H        -0.671636        -0.062967         0.049175
 H         1.726593        -0.512030        -2.112205
 H         1.670560         1.211927        -1.612251
 H         4.358157         0.683016        -0.838874
 H         2.108564         1.838381         1.850891
