19
Iteration:  4211
 C         4.488891        -1.619704         0.923937
 C         3.250934        -0.839157         0.509024
 O         1.919279        -1.479254         0.268565
 C         1.424780        -0.101848        -0.016056
 C        -0.056822         0.054144         0.318130
 C         2.092527         0.418977        -1.292786
 C         3.389005         0.417056        -0.474095
 C         2.722102         0.505690         0.859840
 O         2.852660         1.193959         2.064203
 H         4.747964        -2.157755         0.077060
 H         5.351256        -0.895671         1.123987
 H         4.293901        -2.387571         1.665421
 H        -0.549280        -0.989153         0.488427
 H        -0.099253         0.794704         1.169605
 H        -0.674692         0.546596        -0.507507
 H         2.214794        -0.317221        -2.107997
 H         1.916098         1.410771        -1.728110
 H         4.320492         0.828856        -0.956399
 H         3.149877         2.141183         1.957036
