19
Iteration:   427charge 0 multiplicity 1
 C         4.472269        -1.651320         0.691878
 C         3.239157        -0.918122         0.424842
 O         2.053563        -1.371778        -0.259487
 C         1.482737         0.043559        -0.005636
 C        -0.020676         0.086602         0.313967
 C         2.325061         0.826296        -1.113825
 C         3.519098         0.469741        -0.253441
 C         2.560973         0.210900         1.088231
 O         2.482857         0.846041         2.301596
 H         4.253848        -2.210209         1.654770
 H         4.801556        -2.223238        -0.201325
 H         5.236538        -0.874214         0.895402
 H        -0.337610         1.109770        -0.042495
 H        -0.540610        -0.643242        -0.399287
 H        -0.148094        -0.022476         1.369338
 H         2.265652         0.338343        -2.179750
 H         2.136690         1.968212        -1.156371
 H         4.516877         0.955839        -0.191099
 H         3.040799         1.622125         2.256487
