19
Iteration:  3516charge 0 multiplicity 1
 C         4.365156        -1.675739         0.972391
 C         3.246105        -0.830918         0.447178
 O         1.917440        -1.432525         0.183504
 C         1.417030        -0.078824         0.023497
 C         0.000263         0.073816         0.402417
 C         2.101496         0.375443        -1.310412
 C         3.381851         0.463353        -0.502660
 C         2.674313         0.488358         0.888842
 O         2.970695         1.214433         2.056783
 H         4.139595        -2.434568         1.712332
 H         4.605064        -2.478234         0.204281
 H         5.294758        -1.193450         1.208974
 H        -0.678216        -0.651380        -0.159366
 H        -0.157583        -0.186321         1.463582
 H        -0.280204         1.056051         0.102891
 H         2.209661        -0.259041        -2.180896
 H         1.870198         1.363988        -1.778885
 H         4.419823         0.758219        -0.773502
 H         2.895566         2.167133         1.738827
