19
Iteration:   114
 C         4.341104        -1.697269         0.742418
 C         3.138095        -0.939805         0.440144
 O         1.993396        -1.399097        -0.110001
 C         1.443473        -0.014718        -0.081832
 C        -0.119630        -0.001913         0.041641
 C         2.309129         0.851502        -1.053858
 C         3.510906         0.651248        -0.181837
 C         2.632822         0.344823         1.007773
 O         2.853043         0.879999         2.291522
 H         4.240657        -2.477903         1.549399
 H         4.934947        -2.068722        -0.119064
 H         4.961406        -0.857723         1.119260
 H        -0.447521         1.073399        -0.273522
 H        -0.482319        -0.809233        -0.622641
 H        -0.325532        -0.282122         1.098196
 H         2.417406         0.476054        -2.157674
 H         1.990371         1.809897        -1.040408
 H         4.522277         1.139379         0.042931
 H         2.338459         0.408543         2.955632
