19
Iteration:  3371
 C         4.435696        -1.522628         1.035182
 C         3.222225        -0.816653         0.463150
 O         1.997137        -1.463469         0.378659
 C         1.422068        -0.026623         0.068644
 C         0.057518         0.328054         0.365284
 C         2.020577         0.205346        -1.309895
 C         3.371185         0.241992        -0.633468
 C         2.682419         0.494144         0.767318
 O         2.901748         1.121157         1.957152
 H         5.194092        -1.956396         0.322568
 H         5.143668        -0.876310         1.585287
 H         4.019968        -2.357871         1.696710
 H        -0.093281         1.226028         1.088849
 H        -0.522302         0.627761        -0.533454
 H        -0.575937        -0.565582         0.804650
 H         1.940835        -0.751114        -1.905379
 H         1.746495         1.066564        -1.981423
 H         4.351748         0.600449        -1.070944
 H         2.639197         2.050315         1.981703
