19
Iteration:  2581
 C         4.450686        -1.548982         1.048195
 C         3.278398        -0.819507         0.429965
 O         1.961737        -1.502892         0.438502
 C         1.434662        -0.104388         0.193294
 C        -0.048222         0.299279         0.447989
 C         1.840192         0.087519        -1.226218
 C         3.345646         0.241354        -0.685257
 C         2.801285         0.537134         0.721297
 O         3.057667         1.400491         1.681544
 H         4.391033        -1.641072         2.129011
 H         4.527019        -2.577087         0.590841
 H         5.374473        -1.026775         0.872800
 H        -0.378477         0.025753         1.525296
 H        -0.298721         1.371770         0.530023
 H        -0.868951        -0.207557        -0.165075
 H         1.455887        -0.709123        -1.898787
 H         1.465977         1.085049        -1.560897
 H         4.231626         0.498867        -1.208254
 H         3.330904         0.952791         2.536449
