19
Iteration:  1000charge 0 multiplicity 1
 C         4.259560        -1.509968         1.114870
 C         3.234375        -0.762327         0.368337
 O         2.023284        -1.380040        -0.139184
 C         1.439261         0.000957        -0.089780
 C        -0.080286        -0.312013         0.361854
 C         2.217597         0.682393        -1.210468
 C         3.481980         0.587746        -0.428753
 C         2.702662         0.441625         0.902749
 O         2.836241         0.940467         2.209910
 H         4.035050        -1.823540         2.196702
 H         4.402336        -2.577556         0.648726
 H         5.288393        -1.161752         1.136397
 H        -0.090541        -1.369188         0.541086
 H        -0.408111         0.315198         1.144663
 H        -0.665409        -0.167624        -0.564592
 H         2.123977         0.086949        -2.168140
 H         1.811618         1.738046        -1.450439
 H         4.472713         0.968832        -0.597008
 H         2.981335         1.919842         2.179859
