19
Iteration:  4954
 C         4.496703        -1.566364         0.953524
 C         3.316755        -0.820657         0.366832
 O         1.969023        -1.470251         0.133476
 C         1.426149        -0.069606         0.086440
 C        -0.106763         0.125018         0.227970
 C         2.083446         0.506718        -1.240725
 C         3.404336         0.470735        -0.491188
 C         2.735747         0.444543         0.830806
 O         2.802791         1.037396         2.190348
 H         4.844777        -2.172192         0.076358
 H         5.300550        -0.888239         1.217790
 H         4.113134        -2.163768         1.841259
 H        -0.668020        -0.708015        -0.223642
 H        -0.487337         0.108658         1.296564
 H        -0.401470         1.021236        -0.272864
 H         1.930350         0.046088        -2.198370
 H         1.765557         1.519679        -1.366646
 H         4.320086         0.985660        -0.632688
 H         3.419827         0.526574         2.709853
