19
Iteration:  4894
 C         4.452070        -1.669246         0.862089
 C         3.271412        -0.873693         0.406703
 O         2.010264        -1.436837         0.102951
 C         1.405658        -0.098880         0.006334
 C        -0.042463         0.055698         0.325970
 C         2.205975         0.553686        -1.238431
 C         3.354024         0.520421        -0.390318
 C         2.641764         0.404858         0.945852
 O         2.832377         1.198548         2.063326
 H         5.094613        -1.775008         0.020116
 H         5.033979        -1.359372         1.790186
 H         4.196823        -2.685460         0.852662
 H        -0.615542        -0.775749        -0.079780
 H        -0.044733         0.069425         1.378410
 H        -0.508079         1.058463         0.055774
 H         2.299219        -0.230091        -2.054598
 H         1.723122         1.547556        -1.435147
 H         4.383628         0.810272        -0.580255
 H         2.259635         0.881175         2.802063
