19
Iteration:  2407charge 0 multiplicity 1
 C         4.519347        -1.647440         0.962984
 C         3.289632        -0.882497         0.449787
 O         1.981887        -1.462274         0.481061
 C         1.392126        -0.126735         0.144244
 C         0.038943         0.320630         0.465929
 C         1.858330         0.202656        -1.308829
 C         3.292455         0.172954        -0.613084
 C         2.730364         0.501846         0.735881
 O         3.028047         1.451264         1.766050
 H         4.357903        -1.594761         2.062439
 H         4.497376        -2.750990         0.665861
 H         5.399847        -1.106065         0.654629
 H        -0.581160         0.293381         1.412813
 H        -0.084179         1.331064         0.020260
 H        -0.788497        -0.120103        -0.212565
 H         1.679233        -0.511264        -2.111978
 H         1.428845         1.207280        -1.610320
 H         4.290179         0.465951        -0.983451
 H         2.960497         0.906699         2.537264
