19
Iteration:   475
 C         4.396191        -1.842383         0.691101
 C         3.359564        -0.909096         0.355215
 O         2.093521        -1.408962        -0.047162
 C         1.513517        -0.073016         0.043599
 C         0.061251         0.094301         0.230340
 C         2.214141         0.844472        -1.103840
 C         3.433210         0.729705        -0.232709
 C         2.657493         0.310997         0.991369
 O         2.431841         0.881611         2.208536
 H         3.957446        -2.577574         1.437048
 H         4.827761        -2.058242        -0.330312
 H         5.313797        -1.293024         1.193195
 H        -0.327307         0.939075         0.895255
 H        -0.340679         0.341302        -0.764048
 H        -0.314773        -0.923412         0.648751
 H         2.203263         0.472438        -2.086355
 H         1.678335         1.886929        -1.065587
 H         4.404508         1.216008        -0.411460
 H         3.322592         1.002468         2.633016
