19
Iteration:  3227charge 0 multiplicity 1
 C         4.602725        -1.667316         0.932562
 C         3.220734        -0.932001         0.552185
 O         1.812083        -1.453537         0.494439
 C         1.359389        -0.064681         0.113595
 C        -0.050789         0.270479         0.389666
 C         2.074553         0.156859        -1.286500
 C         3.387777         0.077739        -0.493139
 C         2.755716         0.493722         0.836748
 O         2.926426         1.529827         1.676523
 H         5.041402        -1.108559         1.764525
 H         4.477155        -2.656915         1.410378
 H         5.067066        -1.707414        -0.042709
 H        -0.513863        -0.495124         1.013463
 H        -0.121568         1.223444         1.038991
 H        -0.661052         0.516507        -0.573026
 H         1.887795        -0.483987        -2.184768
 H         1.950464         1.182225        -1.654269
 H         4.280686         0.439212        -0.886509
 H         3.332687         2.288078         1.276601
