19
Iteration:  3781charge 0 multiplicity 1
 C         4.318110        -1.768122         1.041543
 C         3.254124        -0.804089         0.386083
 O         2.045183        -1.442810        -0.092264
 C         1.487146        -0.083007        -0.043490
 C         0.058878         0.041309         0.558052
 C         2.147700         0.594923        -1.307550
 C         3.429509         0.586075        -0.512538
 C         2.706836         0.441953         0.908195
 O         2.718809         1.045334         2.138766
 H         3.750454        -2.752741         0.957460
 H         5.226466        -1.818851         0.461376
 H         4.521132        -1.476283         2.116145
 H        -0.515086         0.723985         0.039707
 H        -0.413192        -0.920219         0.773500
 H         0.301326         0.497606         1.536870
 H         2.090983         0.018258        -2.257512
 H         1.910739         1.661318        -1.505002
 H         4.478185         0.813677        -0.748647
 H         2.363279         1.936665         1.940993
