19
Iteration:  3917charge 0 multiplicity 1
 C         4.466577        -1.661468         0.771661
 C         3.255408        -0.783486         0.547549
 O         1.999963        -1.459998         0.214500
 C         1.430381         0.036875         0.070366
 C         0.007972         0.075475         0.257488
 C         2.195113         0.454701        -1.283266
 C         3.429312         0.400559        -0.440054
 C         2.609015         0.492969         0.917107
 O         2.768926         1.058268         2.119480
 H         4.517238        -1.960569         1.808723
 H         4.436661        -2.646210         0.162400
 H         5.445735        -1.175133         0.572414
 H        -0.373990         1.023163         0.812107
 H        -0.395862         0.141907        -0.774798
 H        -0.359907        -0.850343         0.668587
 H         1.971015        -0.257519        -2.103226
 H         1.636064         1.353520        -1.527123
 H         4.256044         1.004280        -0.617641
 H         2.605157         2.039425         2.007655
