19
Iteration:  3570charge 0 multiplicity 1
 C         4.596053        -1.564914         0.878234
 C         3.286058        -0.883380         0.464559
 O         1.862987        -1.426854         0.219365
 C         1.492906        -0.038384         0.066805
 C         0.076865         0.291428         0.345671
 C         2.008095         0.438659        -1.312384
 C         3.423324         0.323833        -0.637030
 C         2.691211         0.382382         0.910412
 O         2.711276         1.000508         2.142647
 H         4.710828        -1.077341         1.848618
 H         4.663527        -2.686187         1.019984
 H         5.554004        -1.406536         0.388707
 H        -0.402684        -0.393723         1.079509
 H         0.077009         1.270092         0.805636
 H        -0.558066         0.313520        -0.483602
 H         1.888388        -0.316642        -2.077937
 H         1.838286         1.489928        -1.621041
 H         4.458793         0.704436        -0.876464
 H         2.443808         1.952178         1.965274
