19
Iteration:   760
 C         4.466930        -1.643276         0.857520
 C         3.345047        -0.738883         0.413087
 O         2.095370        -1.486186         0.007515
 C         1.474832        -0.151027         0.026130
 C         0.026083         0.076625         0.155901
 C         2.108334         0.654282        -1.157424
 C         3.407703         0.687134        -0.330748
 C         2.659800         0.430139         0.905500
 O         2.609641         0.816511         2.263513
 H         4.240440        -2.231549         1.711414
 H         4.871274        -2.346841         0.167190
 H         5.288461        -1.030136         1.100137
 H        -0.234063         1.119526         0.292545
 H        -0.480841        -0.276995        -0.742137
 H        -0.378377        -0.539149         0.986923
 H         2.163758         0.202345        -2.096980
 H         1.554611         1.617759        -1.274877
 H         4.353544         1.105489        -0.721046
 H         2.241848         1.737934         2.238237
