19
Iteration:  1173
 C         4.365197        -1.622804         1.087463
 C         3.266932        -0.885175         0.332049
 O         2.067344        -1.448291        -0.138479
 C         1.506550        -0.111799        -0.013385
 C        -0.076840        -0.180813         0.253172
 C         2.128788         0.840012        -1.115541
 C         3.427742         0.608274        -0.387009
 C         2.665975         0.352563         0.939245
 O         2.757997         1.000223         2.113415
 H         4.004489        -1.785144         2.095839
 H         4.678871        -2.531737         0.760894
 H         5.299897        -1.161128         1.255328
 H        -0.188798         0.239633         1.269284
 H        -0.656374         0.536291        -0.345211
 H        -0.485172        -1.206468         0.236101
 H         1.951110         0.680906        -2.184348
 H         1.979846         1.812117        -0.830817
 H         4.331767         1.204857        -0.484816
 H         3.230451         1.801832         1.895734
