19
Iteration:  2422
 C         4.418129        -1.630345         0.987088
 C         3.236858        -0.832182         0.565490
 O         1.934763        -1.496975         0.401218
 C         1.400888        -0.156638         0.119167
 C        -0.062808         0.306676         0.546164
 C         2.006976         0.166758        -1.263837
 C         3.353997         0.238557        -0.708441
 C         2.788441         0.510943         0.755707
 O         3.003178         1.451969         1.697019
 H         4.633356        -1.955153         2.063452
 H         4.445836        -2.511653         0.364812
 H         5.418416        -1.191173         0.644090
 H         0.113498         0.201358         1.573267
 H        -0.095981         1.346834         0.291764
 H        -0.846507        -0.327868         0.263499
 H         1.735674        -0.492270        -2.118761
 H         1.811925         1.211727        -1.538214
 H         4.255334         0.471911        -1.251529
 H         2.577644         1.164091         2.546336
