19
Iteration:   206
 C         4.355059        -1.722860         0.818011
 C         3.212524        -0.927176         0.451794
 O         2.057940        -1.361168        -0.314986
 C         1.426450         0.005501        -0.121733
 C        -0.014475        -0.019039         0.277378
 C         2.324787         0.933433        -1.061021
 C         3.523582         0.523368        -0.203335
 C         2.646708         0.243596         1.038978
 O         2.659461         0.995359         2.225504
 H         3.984116        -2.450168         1.536373
 H         4.810932        -2.236884        -0.043245
 H         5.234211        -1.115878         1.146423
 H        -0.590749         0.874821         0.236169
 H        -0.515159        -0.813837        -0.385390
 H        -0.167795        -0.551500         1.265018
 H         2.337283         0.626784        -2.098039
 H         2.064772         2.042947        -0.921224
 H         4.485909         0.900673        -0.036483
 H         1.948427         0.572752         2.750740
