19
Iteration:  4831charge 0 multiplicity 1
 C         4.293498        -1.938513         0.965515
 C         3.265795        -0.910393         0.367445
 O         2.070449        -1.412159        -0.010577
 C         1.449487        -0.060827         0.008782
 C         0.037408        -0.227436         0.430857
 C         2.165561         0.772374        -1.139359
 C         3.485150         0.534038        -0.371956
 C         2.645348         0.447712         0.912483
 O         2.769859         1.456309         1.886452
 H         4.502154        -2.628923         0.136474
 H         5.268262        -1.410526         1.338290
 H         3.916596        -2.384450         1.925149
 H        -0.660133        -0.393677        -0.402271
 H        -0.000041        -1.248667         0.885757
 H        -0.378284         0.398940         1.235517
 H         2.004102         0.292241        -2.124233
 H         1.675673         1.725872        -1.027934
 H         4.448078         1.031934        -0.313677
 H         2.442136         0.962739         2.660640
