19
Iteration:   903charge 0 multiplicity 1
 C         4.562354        -1.566967         0.727256
 C         3.205452        -0.962093         0.528221
 O         2.051988        -1.465869        -0.041119
 C         1.405035        -0.055725        -0.012640
 C        -0.085084        -0.077836         0.303935
 C         2.285817         0.600569        -1.181085
 C         3.489473         0.448386        -0.193828
 C         2.615160         0.385090         0.967460
 O         2.526391         1.211440         2.107843
 H         4.619589        -2.483603         1.308637
 H         5.066300        -1.817032        -0.231603
 H         5.168041        -0.882888         1.277402
 H        -0.250490        -0.970942         0.886996
 H        -0.312053         0.805761         0.880742
 H        -0.617479         0.104458        -0.619627
 H         2.355174         0.244792        -2.206934
 H         1.891096         1.672672        -1.184591
 H         4.525287         0.778038        -0.393616
 H         3.310646         1.792999         1.977366
