19
Iteration:  2335
 C         4.243103        -1.730126         1.075893
 C         3.193050        -0.850181         0.512550
 O         1.887409        -1.371242         0.330134
 C         1.378984        -0.034673         0.113598
 C         0.008922        -0.036305         0.607819
 C         1.997721         0.266965        -1.286505
 C         3.398239         0.280959        -0.597189
 C         2.797084         0.549360         0.729288
 O         3.177241         1.514792         1.594891
 H         3.979326        -1.935286         2.110899
 H         4.447891        -2.580958         0.457775
 H         5.139883        -1.075467         1.122311
 H        -0.099150        -0.735726         1.390932
 H        -0.334831         0.935008         0.929322
 H        -0.712700        -0.250162        -0.180616
 H         1.630864        -0.512737        -1.982422
 H         1.739940         1.264402        -1.662860
 H         4.425178         0.396267        -0.946438
 H         3.315528         1.299447         2.512842
