19
Iteration:   317
 C         4.406668        -1.622899         0.851086
 C         3.173445        -0.889636         0.449468
 O         1.934352        -1.325393        -0.272114
 C         1.421175         0.004252        -0.081442
 C        -0.072803        -0.094660         0.087915
 C         2.339349         0.859064        -1.029340
 C         3.485972         0.486103        -0.185783
 C         2.593911         0.309540         1.033412
 O         2.746609         0.844532         2.316577
 H         4.436264        -2.435272         1.636486
 H         4.783063        -1.933525        -0.149923
 H         5.123250        -0.946304         1.205082
 H        -0.306924         0.806662         0.677005
 H        -0.681097        -0.178646        -0.873287
 H        -0.315135        -0.970777         0.674957
 H         2.430227         0.626766        -2.059022
 H         2.253638         1.926402        -0.967953
 H         4.504370         1.081856        -0.139062
 H         3.455061         1.520782         2.210712
