19
Iteration:  3655
 C         4.188932        -1.871876         1.014705
 C         3.366751        -0.808138         0.410760
 O         1.992950        -1.375252         0.070679
 C         1.452176        -0.056439         0.086930
 C        -0.129866        -0.269752         0.312931
 C         2.101938         0.737149        -1.150057
 C         3.425149         0.418860        -0.481150
 C         2.798043         0.493974         0.903552
 O         2.965899         1.266016         1.979509
 H         5.259889        -1.760940         0.744966
 H         3.941713        -1.767255         2.138526
 H         3.729787        -2.746713         0.486474
 H        -0.321458         0.383792         1.202753
 H        -0.820593         0.047862        -0.482950
 H        -0.243891        -1.400058         0.525026
 H         1.979120         0.672848        -2.274467
 H         2.031566         1.843717        -0.971862
 H         4.392170         1.002754        -0.648566
 H         3.046407         2.184589         1.733639
