19
Iteration:  3134charge 0 multiplicity 1
 C         4.299970        -1.625480         1.282262
 C         3.217569        -0.915635         0.469203
 O         1.843855        -1.407372         0.246847
 C         1.431128        -0.103409         0.032323
 C         0.055055         0.026306         0.617326
 C         2.045629         0.320147        -1.380343
 C         3.412326         0.160014        -0.627867
 C         2.664277         0.528510         0.742020
 O         3.125406         1.488686         1.727300
 H         5.352969        -1.240149         1.029550
 H         4.277651        -1.518123         2.406967
 H         4.263872        -2.713716         0.950303
 H         0.177662         0.169243         1.734820
 H        -0.444308         0.883867         0.186837
 H        -0.525847        -0.857464         0.432447
 H         1.757419        -0.362539        -2.223111
 H         1.844450         1.417674        -1.640224
 H         4.359303         0.291099        -1.210691
 H         2.685798         2.384685         1.549736
