19
Iteration:  4393charge 0 multiplicity 1
 C         4.501369        -1.544064         0.884237
 C         3.279277        -0.869509         0.462697
 O         1.936056        -1.438856         0.282258
 C         1.450006        -0.081081         0.019877
 C        -0.040133         0.100493         0.371365
 C         2.111674         0.339798        -1.236190
 C         3.427752         0.370817        -0.482557
 C         2.608656         0.458824         0.843991
 O         2.827571         1.270122         1.942121
 H         5.038772        -1.941631        -0.012012
 H         5.320527        -0.839821         1.211453
 H         4.333431        -2.337971         1.630046
 H        -0.690904         0.116650        -0.471730
 H        -0.375376        -0.633795         1.024249
 H        -0.080266         1.149645         0.724318
 H         2.049791        -0.487232        -2.027711
 H         1.745070         1.257612        -1.733021
 H         4.380426         0.813193        -0.608393
 H         2.757689         0.741442         2.742702
