19
Iteration:     6
 C         4.342800        -1.779741         0.782760
 C         3.312634        -0.820944         0.437053
 O         2.042962        -1.340222        -0.168669
 C         1.492492        -0.019013        -0.028596
 C        -0.005162        -0.033094         0.172866
 C         2.264865         0.772981        -1.113595
 C         3.497517         0.557857        -0.208158
 C         2.628912         0.386690         1.007318
 O         2.654987         1.016800         2.233527
 H         3.951932        -2.513773         1.535441
 H         4.699764        -2.380256        -0.080566
 H         5.116371        -1.232083         1.352951
 H        -0.415419        -0.571885         1.085362
 H        -0.486329         0.961518         0.268349
 H        -0.514194        -0.616878        -0.628524
 H         2.146862         0.197972        -2.144893
 H         1.762987         1.760771        -1.266189
 H         4.576767         0.794611        -0.299175
 H         2.353871         0.444281         2.970166
