19
Iteration:  1125charge 0 multiplicity 1
 C         4.499814        -1.716067         0.781176
 C         3.276833        -0.859831         0.414598
 O         2.058972        -1.413738         0.010517
 C         1.487126        -0.077922        -0.062409
 C        -0.044442         0.027021         0.307061
 C         2.205477         0.568207        -1.234937
 C         3.468905         0.567540        -0.267982
 C         2.580952         0.417702         0.971588
 O         2.595435         1.078086         2.211704
 H         4.237718        -2.704476         1.207350
 H         5.145819        -2.014223        -0.107282
 H         5.209012        -1.304820         1.541161
 H        -0.142166         0.266911         1.403234
 H        -0.655859         0.749373        -0.298492
 H        -0.411552        -1.020403         0.231217
 H         2.479084        -0.039618        -2.100849
 H         1.949636         1.603724        -1.610581
 H         4.429176         1.114330        -0.417686
 H         2.350631         2.033042         2.121785
