19
Iteration:   146charge 0 multiplicity 1
 C         4.287273        -1.819277         0.774262
 C         3.264048        -0.721415         0.399642
 O         2.059700        -1.247898        -0.107272
 C         1.405065         0.042456         0.012978
 C        -0.099418        -0.095568        -0.072280
 C         2.201002         0.771219        -1.078725
 C         3.480400         0.628108        -0.324371
 C         2.664438         0.469463         1.069752
 O         2.841621         0.817320         2.476156
 H         3.847437        -2.654083         1.394216
 H         4.715749        -2.318529        -0.106002
 H         4.983670        -1.419479         1.495780
 H        -0.604494         0.688930        -0.759197
 H        -0.277570        -1.038567        -0.598208
 H        -0.614978        -0.070151         0.901458
 H         2.159963         0.139859        -2.018503
 H         1.964519         1.709049        -1.353342
 H         4.525285         1.050886        -0.605255
 H         3.212047        -0.048074         2.814197
