19
Iteration:  2985charge 0 multiplicity 1
 C         4.269491        -1.675444         1.375957
 C         3.292181        -0.912393         0.465391
 O         2.033678        -1.491304         0.275025
 C         1.434578        -0.204084         0.088820
 C         0.076547         0.204036         0.729844
 C         1.927542         0.273876        -1.287668
 C         3.299742         0.304453        -0.797684
 C         2.880809         0.483493         0.627434
 O         2.973151         1.474688         1.589982
 H         4.668442        -0.951003         2.079670
 H         3.666408        -2.462098         1.938904
 H         5.139976        -2.195305         0.963328
 H         0.003281        -0.453540         1.666679
 H         0.207173         1.267541         1.059311
 H        -0.858172         0.120664         0.156452
 H         1.513605        -0.446443        -2.055647
 H         1.630877         1.319395        -1.435883
 H         4.131711         0.639047        -1.427329
 H         2.394732         2.175991         1.203165
