19
Iteration:   858charge 0 multiplicity 1
 C         4.309147        -1.912876         0.797746
 C         3.472006        -0.753302         0.480340
 O         2.239082        -1.388232        -0.015179
 C         1.438976        -0.112394         0.076301
 C         0.014859        -0.180284         0.233634
 C         2.087045         0.649702        -1.166545
 C         3.443474         0.629155        -0.439147
 C         2.708400         0.527408         0.948944
 O         2.462315         1.207784         2.205096
 H         3.766799        -2.771396         1.177821
 H         4.859522        -2.256619        -0.032356
 H         4.989250        -1.664118         1.575223
 H        -0.204770        -0.458277         1.213076
 H        -0.435065         0.692472        -0.102668
 H        -0.311207        -0.930950        -0.479595
 H         1.660577         0.137283        -1.991688
 H         1.768674         1.698739        -1.236973
 H         4.445552         1.229398        -0.525529
 H         3.315325         1.487961         2.621059
