19
Iteration:  3674
 C         4.297057        -1.863583         0.964541
 C         3.192150        -0.870293         0.391885
 O         1.998778        -1.404653         0.089596
 C         1.475314        -0.053065        -0.010953
 C        -0.084972        -0.183908         0.250429
 C         2.067344         0.686939        -1.152707
 C         3.435716         0.486676        -0.383993
 C         2.709658         0.488035         0.971099
 O         3.031139         1.302791         2.062100
 H         5.233124        -1.886125         0.342496
 H         4.633472        -1.666035         1.937962
 H         3.896542        -2.856907         0.845837
 H        -0.580091         0.525332         0.896199
 H        -0.659197        -0.050720        -0.704563
 H        -0.426850        -1.207964         0.677873
 H         1.921265         0.162282        -2.120196
 H         1.645350         1.672346        -1.193445
 H         4.343788         0.897309        -0.736443
 H         3.180179         2.193678         1.699337
