19
Iteration:  3702
 C         4.443837        -1.725174         0.773696
 C         3.216276        -0.845623         0.480221
 O         2.018015        -1.407449         0.105097
 C         1.425245        -0.079045         0.058145
 C        -0.131936         0.063842         0.206623
 C         2.128546         0.450367        -1.153430
 C         3.408997         0.478093        -0.338159
 C         2.592442         0.480983         0.989077
 O         2.970766         1.155107         2.107807
 H         5.032104        -1.956766        -0.133946
 H         5.070726        -1.176439         1.535919
 H         4.104127        -2.712242         1.206615
 H        -0.478477         1.120626         0.382831
 H        -0.585824        -0.231471        -0.744531
 H        -0.563745        -0.582262         0.902575
 H         2.047452        -0.273373        -1.966564
 H         1.752402         1.444076        -1.514312
 H         4.378892         0.888825        -0.611103
 H         3.188485         2.070304         1.784343
