19
Iteration:  1261charge 0 multiplicity 1
 C         4.567240        -1.651849         0.819561
 C         3.331948        -0.854692         0.476883
 O         2.031420        -1.479136         0.043869
 C         1.455957        -0.197952         0.116165
 C         0.004914         0.059272         0.121221
 C         2.077003         0.687164        -1.137314
 C         3.433953         0.496541        -0.343955
 C         2.634367         0.359832         0.959632
 O         2.635949         1.095962         2.136557
 H         4.428691        -1.951516         1.889455
 H         4.695379        -2.428615         0.025374
 H         5.442834        -0.954757         0.753404
 H        -0.443613        -0.646443         0.898634
 H        -0.243608         1.133955         0.431740
 H        -0.502988        -0.387213        -0.789661
 H         1.917805         0.238851        -2.146534
 H         1.730959         1.707122        -1.087886
 H         4.425716         1.025375        -0.501542
 H         2.568536         2.039042         1.931788
