19
Iteration:  4618charge 0 multiplicity 1
 C         4.433143        -1.730627         0.731006
 C         3.246420        -0.808604         0.545284
 O         2.033488        -1.481084         0.244416
 C         1.383428        -0.133888         0.029114
 C        -0.083782        -0.081378         0.229816
 C         2.174467         0.488381        -1.258932
 C         3.422276         0.505397        -0.356300
 C         2.666247         0.480637         0.920663
 O         2.841246         1.394036         2.009568
 H         4.874918        -2.006015        -0.278413
 H         5.070651        -1.551555         1.546829
 H         3.983151        -2.665985         1.252792
 H        -0.555243        -0.445508        -0.668681
 H        -0.532664        -0.507274         1.140100
 H        -0.242130         0.949642         0.351379
 H         2.169503         0.086404        -2.275280
 H         1.774206         1.545288        -1.074969
 H         4.372422         0.860351        -0.600408
 H         2.949424         0.935771         2.887925
