19
Iteration:  2342charge 0 multiplicity 1
 C         4.294771        -1.665218         1.050936
 C         3.178207        -0.834137         0.534477
 O         1.875600        -1.388241         0.376237
 C         1.385893        -0.003124         0.046208
 C        -0.022348         0.011051         0.598248
 C         2.004059         0.236861        -1.317303
 C         3.383124         0.233370        -0.638123
 C         2.741900         0.519008         0.772479
 O         3.200337         1.522473         1.647980
 H         3.968781        -2.043221         2.109022
 H         4.258218        -2.691319         0.506237
 H         5.279465        -1.135208         1.051564
 H         0.000191        -0.837569         1.344281
 H        -0.425283         0.904214         1.086991
 H        -0.573816        -0.366184        -0.302630
 H         1.841895        -0.474222        -2.145820
 H         1.676651         1.271573        -1.660460
 H         4.378142         0.557804        -1.009456
 H         3.562142         1.149441         2.490779
