19
Iteration:   496charge 0 multiplicity 1
 C         4.309536        -1.817273         0.653000
 C         3.280059        -0.761309         0.424688
 O         2.074226        -1.276822        -0.129922
 C         1.451415         0.032745        -0.023263
 C         0.018193        -0.150997         0.222260
 C         2.283904         0.748294        -1.147757
 C         3.567998         0.570125        -0.341332
 C         2.675829         0.480605         1.059011
 O         2.495137         0.900763         2.367097
 H         3.795621        -2.638855         1.296475
 H         4.798560        -2.129573        -0.352834
 H         5.301234        -1.605153         1.324367
 H        -0.366742         0.345013         1.187432
 H        -0.650092         0.473495        -0.418835
 H        -0.318481        -1.244265         0.367452
 H         2.282565         0.189389        -2.073598
 H         1.861262         1.895893        -1.266980
 H         4.564012         1.004593        -0.418602
 H         3.335680         0.942988         2.832253
