19
Iteration:  3300charge 0 multiplicity 1
 C         4.238495        -1.806913         1.236273
 C         3.232731        -0.854652         0.574362
 O         1.909133        -1.340452         0.254648
 C         1.382829        -0.026983         0.033702
 C        -0.019592        -0.109121         0.533959
 C         2.066922         0.312420        -1.375319
 C         3.386135         0.323391        -0.602861
 C         2.831855         0.530586         0.704086
 O         3.073811         1.514496         1.785163
 H         5.242693        -1.420169         1.102062
 H         4.221678        -1.860091         2.341250
 H         4.075806        -2.721467         0.710625
 H         0.040683        -0.661480         1.425379
 H        -0.545778         0.802577         0.797308
 H        -0.598746        -0.609300        -0.181634
 H         1.809098        -0.512412        -2.033544
 H         1.846329         1.255655        -1.878138
 H         4.261588         0.607929        -1.096010
 H         3.256829         2.360291         1.353127
