19
Iteration:    14charge 0 multiplicity 1
 C         4.327049        -1.819237         0.741435
 C         3.301192        -0.775720         0.446148
 O         2.037531        -1.299649        -0.217253
 C         1.507446         0.030515        -0.013901
 C        -0.021471        -0.080134         0.260208
 C         2.285921         0.734755        -1.180754
 C         3.592462         0.564606        -0.215616
 C         2.635687         0.425638         1.032263
 O         2.563870         1.036875         2.280574
 H         3.778132        -2.533985         1.456098
 H         4.671160        -2.361709        -0.184457
 H         5.185645        -1.439937         1.220591
 H        -0.158498        -0.424807         1.387892
 H        -0.578945         0.849329         0.007484
 H        -0.382027        -0.866310        -0.405762
 H         2.224943        -0.130274        -2.070855
 H         1.923247         1.658164        -1.439501
 H         4.629677         0.618501        -0.335513
 H         2.308996         0.325694         2.941395
