19
Iteration:   340charge 0 multiplicity 1
 C         4.308399        -1.745029         0.892621
 C         3.234796        -0.876040         0.359655
 O         2.052914        -1.387079        -0.218671
 C         1.432078         0.036370        -0.063407
 C        -0.066381        -0.099524         0.050912
 C         2.213494         0.970197        -1.044654
 C         3.429410         0.600618        -0.186608
 C         2.630257         0.304427         1.037352
 O         2.844677         0.826661         2.284160
 H         3.858244        -2.392327         1.707394
 H         4.913364        -2.277648         0.142451
 H         4.972394        -1.212812         1.526001
 H        -0.507116         0.884858         0.222355
 H        -0.418270        -0.677182        -0.844394
 H        -0.316890        -0.751430         0.871706
 H         2.292682         0.860025        -2.050445
 H         1.750051         1.967885        -0.862473
 H         4.550025         0.928409        -0.053750
 H         3.123648         1.771643         2.169052
