19
Iteration:  1810charge 0 multiplicity 1
 C         4.299157        -1.692314         1.069019
 C         3.270646        -0.838253         0.485125
 O         2.070050        -1.485780         0.183222
 C         1.429988        -0.177884         0.073620
 C        -0.036715        -0.021351         0.419679
 C         1.957703         0.477395        -1.246686
 C         3.409494         0.442321        -0.599042
 C         2.757514         0.482509         0.828668
 O         2.909818         1.390262         1.907257
 H         5.334318        -1.151478         0.984729
 H         4.111832        -2.003396         2.128486
 H         4.596240        -2.594844         0.434929
 H        -0.404764        -1.107084         0.345489
 H        -0.246155         0.151340         1.510715
 H        -0.686299         0.564623        -0.287464
 H         1.611927        -0.163739        -2.165301
 H         1.599778         1.554175        -1.265800
 H         4.324356         0.871781        -1.003495
 H         3.794163         1.780149         1.933501
