19
Iteration:   912
 C         4.594840        -1.523482         0.755925
 C         3.244118        -0.909105         0.557021
 O         2.032669        -1.454039        -0.071850
 C         1.397878        -0.104216        -0.045496
 C        -0.042281        -0.002345         0.303830
 C         2.286669         0.626611        -1.128160
 C         3.434335         0.367223        -0.282209
 C         2.576467         0.339566         1.008310
 O         2.547659         1.175973         2.119483
 H         4.624502        -2.425793         1.503007
 H         4.968887        -1.809024        -0.219901
 H         5.227947        -0.716345         1.153519
 H        -0.353964        -0.942066         0.654941
 H        -0.235729         0.742783         1.013836
 H        -0.665950         0.053112        -0.581944
 H         2.319857         0.105272        -2.187063
 H         1.992519         1.712856        -1.260282
 H         4.562449         0.660832        -0.404055
 H         3.119985         1.965811         1.969427
