19
Iteration:   975charge 0 multiplicity 1
 C         4.249024        -1.640818         1.059513
 C         3.364399        -0.665445         0.348888
 O         2.164531        -1.334075         0.017564
 C         1.508997        -0.091518        -0.057237
 C         0.020783        -0.134717         0.305986
 C         2.090678         0.569052        -1.283377
 C         3.385420         0.595111        -0.500313
 C         2.615283         0.571401         0.884920
 O         2.784083         0.829974         2.232949
 H         3.848407        -1.848971         2.115009
 H         4.272792        -2.579023         0.570659
 H         5.289121        -1.386209         1.260197
 H        -0.094565        -1.173341         0.522274
 H        -0.397056         0.501792         1.113566
 H        -0.534688         0.254508        -0.549940
 H         2.003116        -0.095847        -2.178505
 H         1.708462         1.500910        -1.477277
 H         4.355844         1.245235        -0.580395
 H         2.330837         1.644848         2.521134
