19
Iteration:  3804
 C         4.209980        -1.807417         1.118430
 C         3.244076        -0.816954         0.359444
 O         2.087226        -1.373550        -0.110817
 C         1.489849         0.000774         0.001373
 C         0.091760        -0.104202         0.509858
 C         2.079150         0.656531        -1.194552
 C         3.479482         0.526862        -0.458449
 C         2.637141         0.420920         0.870989
 O         2.793840         1.085068         1.988952
 H         3.606819        -2.743545         1.437735
 H         4.965479        -2.092672         0.391561
 H         4.681051        -1.259748         1.973888
 H        -0.570031         0.406691        -0.113687
 H        -0.062641        -1.186454         0.485851
 H        -0.017996         0.256100         1.584636
 H         2.010055         0.230619        -2.225666
 H         1.771720         1.707075        -1.197203
 H         4.400068         1.201994        -0.339750
 H         3.107456         2.012476         1.883333
