19
Iteration:  4946
 C         4.533261        -1.544080         0.900941
 C         3.358812        -0.829001         0.372995
 O         1.928049        -1.476314         0.175672
 C         1.393347        -0.052739         0.031386
 C        -0.112604         0.162994         0.192404
 C         2.040161         0.483168        -1.268292
 C         3.445627         0.483704        -0.473240
 C         2.743120         0.402289         0.935288
 O         2.796447         1.027011         2.181472
 H         5.129459        -2.082253         0.139187
 H         5.135142        -0.746616         1.348080
 H         4.309908        -2.233128         1.718777
 H        -0.539868        -0.792911        -0.184850
 H        -0.463686         0.249860         1.207977
 H        -0.515992         1.138411        -0.296330
 H         1.668853        -0.096432        -2.082566
 H         1.914163         1.585293        -1.348682
 H         4.391397         0.891420        -0.803925
 H         3.318756         0.433102         2.723628
