19
Iteration:  2099
 C         4.433548        -1.634571         1.009001
 C         3.246449        -0.916439         0.440357
 O         1.978747        -1.482609         0.343929
 C         1.423707        -0.113468         0.125981
 C        -0.003433         0.264352         0.511270
 C         1.991608         0.231347        -1.204942
 C         3.339263         0.303229        -0.622490
 C         2.788142         0.489688         0.703475
 O         2.930700         1.362899         1.821434
 H         5.400452        -1.244512         0.707292
 H         4.235904        -1.924153         2.115585
 H         4.313338        -2.685747         0.586041
 H        -0.358912        -0.599284         1.010057
 H        -0.063955         1.151977         1.148543
 H        -0.552002         0.529915        -0.365309
 H         1.798480        -0.467416        -2.064608
 H         1.621154         1.253536        -1.347832
 H         4.308850         0.546492        -1.066211
 H         2.882989         2.300080         1.510651
