19
Iteration:  4860charge 0 multiplicity 1
 C         4.242531        -1.910742         0.944120
 C         3.309674        -0.830406         0.383558
 O         2.142225        -1.393744        -0.046482
 C         1.483730        -0.073325         0.056796
 C         0.027321        -0.159035         0.413279
 C         2.109629         0.654353        -1.069408
 C         3.455243         0.482155        -0.407320
 C         2.729635         0.461055         0.920133
 O         2.697805         1.427368         1.923809
 H         4.841950        -2.144501         0.087166
 H         4.947472        -1.714485         1.749705
 H         3.622812        -2.702562         1.233703
 H        -0.573952        -0.716305        -0.303069
 H         0.050525        -0.820089         1.219080
 H        -0.504497         0.816756         0.652940
 H         1.880582         0.242602        -2.088419
 H         1.746868         1.728141        -1.111103
 H         4.382370         0.865937        -0.710527
 H         2.643917         0.872473         2.758121
