19
Iteration:  3298
 C         4.238223        -1.835596         1.235772
 C         3.247809        -0.831847         0.556530
 O         1.918286        -1.348492         0.266360
 C         1.387173        -0.005261         0.036300
 C        -0.028630        -0.114013         0.524711
 C         2.056560         0.298690        -1.395265
 C         3.360950         0.324749        -0.590289
 C         2.843505         0.531193         0.714802
 O         3.075947         1.534581         1.789965
 H         5.238962        -1.457539         1.164751
 H         4.180220        -1.923916         2.318394
 H         4.104549        -2.737780         0.679005
 H         0.053536        -0.713875         1.437206
 H        -0.561117         0.753368         0.817954
 H        -0.636217        -0.541022        -0.219965
 H         1.843786        -0.530506        -2.044984
 H         1.836611         1.255909        -1.884585
 H         4.296302         0.579406        -1.108630
 H         3.238620         2.375956         1.377038
