19
Iteration:  2227
 C         4.369480        -1.654438         0.890545
 C         3.254111        -0.784322         0.510102
 O         1.949541        -1.492889         0.504564
 C         1.435757        -0.084880         0.109739
 C        -0.012116         0.304782         0.492937
 C         1.948635         0.132563        -1.291112
 C         3.405969         0.269535        -0.677656
 C         2.796514         0.588346         0.711083
 O         2.940903         1.318460         1.867573
 H         4.306381        -2.301481         1.720085
 H         4.429601        -2.363719         0.108222
 H         5.371485        -1.250712         0.925022
 H        -0.063286         0.443916         1.583325
 H        -0.366580         1.297385         0.078410
 H        -0.754298        -0.521826         0.264380
 H         1.880160        -0.753674        -1.934018
 H         1.524169         0.958006        -1.831868
 H         4.445325         0.282105        -1.087343
 H         3.364441         2.182445         1.711754
