19
Iteration:  4943charge 0 multiplicity 1
 C         4.553890        -1.523838         0.865153
 C         3.346678        -0.832232         0.387893
 O         1.918717        -1.468129         0.190697
 C         1.392554        -0.039732         0.010831
 C        -0.109018         0.177492         0.174801
 C         2.024767         0.491636        -1.260108
 C         3.459493         0.476971        -0.476931
 C         2.720824         0.388604         0.995147
 O         2.797934         1.018572         2.161512
 H         5.322978        -2.082161         0.219021
 H         5.062861        -0.721714         1.394873
 H         4.404819        -2.351468         1.675950
 H        -0.496801        -0.759891        -0.256232
 H        -0.385443         0.339156         1.284416
 H        -0.498221         1.029567        -0.324045
 H         1.688699        -0.185813        -2.012965
 H         1.892304         1.522027        -1.379614
 H         4.390032         0.785916        -0.919002
 H         3.240812         0.387105         2.754004
