19
Iteration:  1874
 C         4.427776        -1.730941         0.836103
 C         3.229426        -0.794876         0.578769
 O         1.916595        -1.491615         0.274965
 C         1.460409        -0.158036         0.015800
 C         0.031455         0.066659         0.590476
 C         2.209490         0.464248        -1.349235
 C         3.438653         0.251318        -0.544545
 C         2.671668         0.562911         0.814471
 O         2.770030         1.366319         1.895228
 H         4.739961        -1.408281         1.822381
 H         4.146593        -2.785719         0.735137
 H         5.186464        -1.339331         0.156206
 H        -0.036943        -0.883285         1.187582
 H         0.110924         0.896892         1.309634
 H        -0.605155        -0.009959        -0.296505
 H         1.888192        -0.172227        -2.136413
 H         1.880811         1.521142        -1.524729
 H         4.495912         0.475886        -0.635277
 H         2.342300         2.211813         1.787552
