19
Iteration:  1248charge 0 multiplicity 1
 C         4.501257        -1.711657         0.871651
 C         3.326916        -0.833027         0.462306
 O         2.071924        -1.437244         0.141810
 C         1.478575        -0.048487         0.028783
 C        -0.029921        -0.048372         0.128391
 C         2.058940         0.653437        -1.141679
 C         3.357607         0.629761        -0.408147
 C         2.716817         0.406324         0.935570
 O         2.700854         0.986901         2.156901
 H         4.576436        -2.127327         1.943020
 H         4.490743        -2.595046         0.281243
 H         5.476757        -1.228516         0.648764
 H        -0.588819        -0.432118         0.997552
 H        -0.356627         1.006035        -0.106151
 H        -0.280685        -0.511188        -0.872140
 H         1.977406         0.251464        -2.198530
 H         1.618987         1.617247        -1.071170
 H         4.305182         1.212480        -0.495815
 H         2.261448         1.865584         2.012859
