19
Iteration:  3485
 C         4.231748        -1.827067         1.056559
 C         3.215465        -0.806572         0.452390
 O         2.019960        -1.373617         0.093983
 C         1.394338        -0.020075         0.152513
 C        -0.053256        -0.182080         0.426614
 C         2.077119         0.535172        -1.209150
 C         3.462518         0.344479        -0.481986
 C         2.735469         0.488619         0.867725
 O         2.963118         1.423646         1.855761
 H         3.661804        -2.735190         1.364921
 H         4.862879        -2.201556         0.212708
 H         4.863176        -1.477955         1.865748
 H        -0.570213        -0.208042        -0.635847
 H        -0.149028        -1.184508         1.014690
 H        -0.416582         0.655914         1.009214
 H         1.843039         0.088677        -2.194472
 H         1.999174         1.659415        -1.282608
 H         4.497731         0.711232        -0.837699
 H         3.683058         1.950820         1.541360
