19
Iteration:   196charge 0 multiplicity 1
 C         4.343607        -1.797631         0.851731
 C         3.230816        -0.886627         0.403460
 O         2.046511        -1.393196        -0.268722
 C         1.463700        -0.031640        -0.131297
 C        -0.005894        -0.048228         0.191449
 C         2.240550         0.929386        -1.071735
 C         3.491846         0.576766        -0.147914
 C         2.633670         0.323225         1.005266
 O         2.711271         0.976000         2.220369
 H         4.141282        -2.559147         1.609931
 H         4.726447        -2.314435        -0.039374
 H         5.093047        -1.188654         1.364728
 H        -0.488362         0.878869        -0.012444
 H        -0.563199        -0.812779        -0.377880
 H        -0.127832        -0.211822         1.276993
 H         2.223457         0.983578        -2.130400
 H         1.980828         2.062152        -0.710352
 H         4.430590         1.077005         0.040607
 H         2.444358         0.411886         2.956701
