19
Iteration:  1437
 C         4.403428        -1.611384         0.957498
 C         3.371033        -0.763438         0.350124
 O         2.068786        -1.465540         0.234643
 C         1.452702        -0.141048         0.090558
 C        -0.084568        -0.055077         0.128610
 C         1.993655         0.525201        -1.145211
 C         3.436345         0.614202        -0.466805
 C         2.733375         0.493040         0.824003
 O         2.773462         1.027190         2.132792
 H         5.402351        -1.299675         0.660293
 H         4.375483        -1.769729         2.124752
 H         4.282300        -2.697980         0.652781
 H        -0.491561        -0.402702         1.133990
 H        -0.326254         1.054564         0.029857
 H        -0.385041        -0.538824        -0.879985
 H         1.888514        -0.204027        -1.964881
 H         1.478930         1.521535        -1.311858
 H         4.291128         1.100816        -0.825743
 H         3.104169         1.943227         2.075170
