19
Iteration:  4548
 C         4.463753        -1.532011         1.050215
 C         3.228045        -0.811584         0.450143
 O         2.014742        -1.497508         0.136940
 C         1.484523        -0.117643        -0.065492
 C         0.075950         0.111247         0.401706
 C         2.047962         0.511991        -1.276342
 C         3.346170         0.394422        -0.529844
 C         2.670105         0.425850         0.818783
 O         2.826567         1.128801         2.017500
 H         4.390652        -2.534015         0.694688
 H         5.510181        -1.065192         1.021391
 H         4.388169        -1.480828         2.126423
 H        -0.646781        -0.072974        -0.436713
 H        -0.224461        -0.626803         1.144180
 H        -0.152888         1.098609         0.854483
 H         2.003572         0.142857        -2.370952
 H         1.682180         1.525544        -1.129932
 H         4.335209         0.956304        -0.772146
 H         2.223519         0.602249         2.628457
