19
Iteration:  2691
 C         4.405384        -1.771705         0.922781
 C         3.284399        -0.873021         0.537612
 O         2.023045        -1.410271         0.503058
 C         1.447409        -0.124407         0.206550
 C        -0.079882         0.061015         0.467243
 C         1.939078         0.279734        -1.222980
 C         3.256043         0.317343        -0.600315
 C         2.796417         0.479682         0.812418
 O         3.031003         1.611644         1.505153
 H         5.295379        -1.479374         1.528424
 H         3.785029        -2.296755         1.740406
 H         4.718218        -2.495268         0.140058
 H        -0.296135        -0.243013         1.547528
 H        -0.256949         1.071357         0.050249
 H        -0.348510        -0.770456        -0.262906
 H         1.740522        -0.486441        -2.043615
 H         1.399044         1.236488        -1.482021
 H         4.315035         0.606018        -0.863982
 H         2.970312         1.666177         2.460195
