19
Iteration:  2947
 C         4.295046        -1.576859         1.196288
 C         3.253171        -0.862365         0.474162
 O         1.931142        -1.369684         0.373485
 C         1.383749        -0.044064         0.083201
 C        -0.024174         0.015180         0.658954
 C         2.005797         0.138064        -1.301849
 C         3.352510         0.212547        -0.753494
 C         2.735339         0.515224         0.652026
 O         3.096603         1.488722         1.653184
 H         4.593665        -0.958938         2.072433
 H         3.809085        -2.395490         1.669136
 H         5.216338        -1.857302         0.670551
 H         0.003906        -0.561979         1.593359
 H        -0.280807         1.090264         0.854040
 H        -0.878808        -0.365768         0.053163
 H         1.779654        -0.601145        -2.053609
 H         1.645347         1.144213        -1.589315
 H         4.323021         0.677435        -1.097763
 H         4.092993         1.597798         1.708028
