19
Iteration:  2318charge 0 multiplicity 1
 C         4.251493        -1.796443         1.148801
 C         3.276395        -0.935488         0.409598
 O         1.965760        -1.456914         0.250850
 C         1.434309        -0.088017         0.212287
 C        -0.044143         0.048741         0.639716
 C         1.951694         0.358012        -1.205720
 C         3.354861         0.233876        -0.650601
 C         2.845808         0.513174         0.732400
 O         3.128783         1.643320         1.571428
 H         3.732845        -2.328225         1.993710
 H         4.588588        -2.687833         0.505511
 H         5.086269        -1.186451         1.492377
 H        -0.225282        -0.406327         1.672548
 H        -0.261213         1.164996         0.755596
 H        -0.655956        -0.399672        -0.175798
 H         1.803459        -0.322034        -2.062988
 H         1.688584         1.377774        -1.501625
 H         4.239150         0.661887        -1.092147
 H         2.425676         1.586699         2.234156
