19
Iteration:  2588
 C         4.439523        -1.570983         1.081654
 C         3.293590        -0.834728         0.422847
 O         2.022922        -1.524342         0.412429
 C         1.391139        -0.051838         0.141576
 C        -0.029841         0.294540         0.528347
 C         1.834015         0.095763        -1.212079
 C         3.316927         0.207619        -0.686606
 C         2.762114         0.524698         0.686198
 O         3.042730         1.439925         1.706372
 H         4.256175        -1.531721         2.179970
 H         4.438988        -2.634566         0.658197
 H         5.408555        -1.136587         0.694400
 H        -0.270816         0.044116         1.500093
 H        -0.076097         1.373598         0.266843
 H        -0.582212        -0.251555        -0.193613
 H         1.461333        -0.617401        -1.957695
 H         1.493691         1.123244        -1.474683
 H         4.224158         0.536781        -1.206650
 H         3.277066         0.906995         2.514976
