19
Iteration:  4884
 C         4.406738        -1.815667         0.891143
 C         3.311557        -0.826502         0.413636
 O         1.996574        -1.422273         0.026812
 C         1.467824        -0.107132         0.059312
 C        -0.006638        -0.019244         0.403608
 C         2.136977         0.579158        -1.284768
 C         3.353246         0.536810        -0.330420
 C         2.691781         0.413521         0.943358
 O         2.797844         1.289225         2.016638
 H         5.162180        -1.801642         0.116132
 H         5.058762        -1.494107         1.793679
 H         3.979107        -2.788010         1.088174
 H        -0.571756        -0.752576        -0.183127
 H        -0.223082        -0.270862         1.421608
 H        -0.367514         0.970417         0.021949
 H         2.137318         0.040103        -2.284875
 H         1.934275         1.625793        -1.617253
 H         4.287400         1.089453        -0.495396
 H         2.321042         0.823854         2.721060
