19
Iteration:  3258charge 0 multiplicity 1
 C         4.300423        -1.831682         0.972374
 C         3.267580        -0.815502         0.649221
 O         1.935600        -1.470728         0.463678
 C         1.431082        -0.141414         0.171468
 C        -0.046219         0.060694         0.332543
 C         2.011280         0.215982        -1.184900
 C         3.366883         0.305354        -0.564875
 C         2.856705         0.594027         0.810035
 O         3.027062         1.586807         1.627064
 H         5.147701        -1.472334         1.633248
 H         3.791440        -2.722443         1.456035
 H         4.686585        -2.164555        -0.015902
 H        -0.545442        -0.732123         0.862122
 H        -0.189435         1.037039         0.914658
 H        -0.501406         0.149679        -0.703769
 H         1.892383        -0.387406        -2.117105
 H         1.666981         1.240973        -1.450201
 H         4.321596         0.551145        -0.944190
 H         2.847155         2.438432         1.123986
