19
Iteration:  1487
 C         4.451176        -1.682110         0.872727
 C         3.217451        -0.908422         0.409250
 O         1.916517        -1.371292        -0.072037
 C         1.457427         0.002571         0.051414
 C        -0.007843        -0.166909         0.508622
 C         2.280031         0.488139        -1.209197
 C         3.477546         0.468314        -0.316352
 C         2.656579         0.479405         0.864855
 O         2.690923         1.266307         2.023403
 H         5.002463        -1.053323         1.621424
 H         4.200402        -2.510649         1.459355
 H         5.204112        -2.069996         0.189553
 H         0.134753        -0.018549         1.555154
 H        -0.695609         0.526663         0.100964
 H        -0.247704        -1.170583         0.336128
 H         2.356017        -0.114016        -2.142962
 H         2.020204         1.492465        -1.469340
 H         4.503769         0.780776        -0.458179
 H         2.171041         2.086947         1.833312
