19
Iteration:  1591charge 0 multiplicity 1
 C         4.476865        -1.526472         0.880449
 C         3.196733        -0.821002         0.525426
 O         1.908412        -1.425438         0.283856
 C         1.400071        -0.036700        -0.062586
 C         0.004412        -0.084011         0.276135
 C         2.141551         0.512243        -1.328852
 C         3.367143         0.366260        -0.421265
 C         2.681627         0.496062         0.898747
 O         2.834524         1.183795         2.050989
 H         4.697337        -1.785789         1.946075
 H         4.514974        -2.608377         0.496789
 H         5.344099        -0.975457         0.473876
 H        -0.261991        -1.119462         0.568900
 H        -0.412330         0.709645         0.968561
 H        -0.576857        -0.136786        -0.674932
 H         2.155279        -0.037413        -2.284682
 H         2.008292         1.646952        -1.436060
 H         4.444857         0.657030        -0.576023
 H         3.730420         1.082813         2.380301
