19
Iteration:   209charge 0 multiplicity 1
 C         4.379293        -1.718141         0.807174
 C         3.203204        -0.928743         0.430937
 O         2.059561        -1.348554        -0.320969
 C         1.459520         0.025589        -0.093393
 C        -0.040920        -0.039375         0.299401
 C         2.355676         0.913979        -1.054371
 C         3.515319         0.501948        -0.202880
 C         2.620007         0.249898         1.039457
 O         2.639790         0.991157         2.224792
 H         3.999608        -2.451887         1.547709
 H         4.774933        -2.261635        -0.062740
 H         5.142466        -1.089334         1.136270
 H        -0.540580         0.921583         0.298267
 H        -0.467129        -0.701981        -0.420213
 H        -0.073506        -0.541996         1.229943
 H         2.362379         0.507588        -2.035683
 H         2.040927         2.133326        -0.979722
 H         4.607860         0.909968        -0.178670
 H         1.823378         0.667906         2.708627
