19
Iteration:  4076charge 0 multiplicity 1
 C         4.532036        -1.532122         0.823619
 C         3.210540        -0.872468         0.570190
 O         1.913686        -1.476098         0.284071
 C         1.392151        -0.124933         0.107498
 C        -0.054343         0.105752         0.186143
 C         2.086834         0.391893        -1.192396
 C         3.403456         0.405719        -0.480038
 C         2.722930         0.472898         0.857486
 O         2.918578         1.147015         2.038900
 H         4.598270        -2.136574        -0.092348
 H         5.322717        -0.890481         0.961336
 H         4.535858        -2.235140         1.640179
 H        -0.501319         0.455960         1.114652
 H        -0.113252         0.973146        -0.517897
 H        -0.789032        -0.678569        -0.274176
 H         1.893787        -0.183804        -2.083300
 H         1.602357         1.342264        -1.262116
 H         4.389785         0.752819        -0.591713
 H         2.986669         2.132195         1.912079
