19
Iteration:  3053
 C         4.410298        -1.739049         0.858598
 C         3.296863        -0.818858         0.604251
 O         1.940060        -1.383479         0.569760
 C         1.425427        -0.043247         0.190794
 C        -0.058457         0.158036         0.362074
 C         2.044498         0.123476        -1.311666
 C         3.327950         0.197125        -0.512520
 C         2.745210         0.550670         0.785358
 O         2.918759         1.543694         1.647885
 H         5.394063        -1.280426         0.516049
 H         4.391417        -1.964342         1.966663
 H         4.252522        -2.731209         0.332005
 H        -0.372102         0.314048         1.392096
 H        -0.437255         1.082185        -0.178667
 H        -0.595605        -0.740000        -0.027342
 H         2.051918        -0.764902        -2.042860
 H         1.868478         1.095966        -1.831908
 H         4.353301         0.313875        -0.953527
 H         3.810848         1.427717         2.062170
