19
Iteration:  1194
 C         4.303198        -1.651939         1.074011
 C         3.229452        -0.751279         0.419098
 O         2.058325        -1.363644        -0.181319
 C         1.425411        -0.008888        -0.104631
 C        -0.063504        -0.268969         0.290940
 C         2.176520         0.747452        -1.220574
 C         3.416809         0.605743        -0.345211
 C         2.610324         0.469076         0.972022
 O         2.889296         0.922958         2.201551
 H         4.279268        -1.756896         2.181108
 H         4.456331        -2.569343         0.666573
 H         5.290479        -1.252937         0.887044
 H        -0.295129        -0.098663         1.364332
 H        -0.818615         0.283023        -0.325068
 H        -0.102297        -1.372715         0.147012
 H         2.244920         0.030165        -2.079203
 H         1.779420         1.678873        -1.471382
 H         4.433929         0.980736        -0.371259
 H         3.154767         1.872314         2.073071
