19
Iteration:  3139charge 0 multiplicity 1
 C         4.241199        -1.613265         1.276760
 C         3.240760        -0.877991         0.470824
 O         1.873301        -1.435119         0.241379
 C         1.444622        -0.097022         0.024409
 C         0.085853         0.049265         0.620183
 C         2.001618         0.303091        -1.380746
 C         3.402831         0.139771        -0.679034
 C         2.717976         0.500706         0.784156
 O         3.087051         1.477843         1.744182
 H         5.194488        -1.150489         1.169256
 H         4.156794        -1.465211         2.339066
 H         4.345391        -2.645110         1.032984
 H         0.299497         0.185199         1.679327
 H        -0.352189         1.061467         0.360527
 H        -0.490287        -0.874460         0.364054
 H         1.655268        -0.229604        -2.274590
 H         1.811238         1.302601        -1.712538
 H         4.373081         0.384972        -1.145417
 H         2.791005         2.329716         1.441730
