19
Iteration:  4652
 C         4.331068        -1.903059         0.897848
 C         3.295592        -0.893933         0.450199
 O         2.043957        -1.335612        -0.027880
 C         1.493058         0.007161         0.133850
 C         0.051661        -0.232690         0.390683
 C         2.078059         0.579323        -1.202085
 C         3.428651         0.476741        -0.398801
 C         2.654733         0.453565         1.007549
 O         2.821864         1.467361         1.929134
 H         5.163291        -2.190416         0.191867
 H         4.874700        -1.579316         1.782803
 H         3.644260        -2.790279         1.112105
 H        -0.257895        -1.095614        -0.142484
 H        -0.233985        -0.488836         1.378122
 H        -0.530139         0.563059        -0.077580
 H         1.736632         0.252084        -2.179852
 H         1.950758         1.700788        -1.337608
 H         4.442780         0.904145        -0.649321
 H         2.135461         1.226637         2.575940
