19
Iteration:  4097
 C         4.429886        -1.626427         0.862636
 C         3.247841        -0.858663         0.504506
 O         1.977509        -1.435394         0.187430
 C         1.405337         0.025797         0.068261
 C        -0.045228         0.052087         0.337813
 C         2.130598         0.360289        -1.289869
 C         3.368626         0.369700        -0.459137
 C         2.658653         0.478332         0.904028
 O         2.898192         1.229039         2.048542
 H         5.064321        -1.988033         0.004489
 H         5.022243        -1.039102         1.490350
 H         4.229885        -2.519702         1.472443
 H        -0.086979        -0.151939         1.409845
 H        -0.589310         0.977432         0.022696
 H        -0.568055        -0.850422        -0.214157
 H         2.049614        -0.426550        -2.018213
 H         1.921194         1.346533        -1.696125
 H         4.352006         0.608807        -0.776009
 H         3.007934         2.170337         1.828157
