19
Iteration:  4002
 C         4.236487        -1.773074         1.111367
 C         3.304183        -0.808362         0.353316
 O         1.981724        -1.491313         0.040836
 C         1.439591        -0.075730         0.067662
 C         0.012945        -0.172080         0.502911
 C         2.189450         0.639794        -1.421017
 C         3.412159         0.524742        -0.505166
 C         2.714185         0.513548         0.864683
 O         2.862864         1.241359         2.054994
 H         3.661271        -2.695185         1.180977
 H         5.218498        -1.895912         0.555603
 H         4.449258        -1.349251         2.088621
 H        -0.048476         0.334058         1.410048
 H        -0.828460         0.189781         0.024013
 H        -0.260241        -1.146521         0.855696
 H         1.937176         0.021383        -2.357143
 H         2.016197         1.700794        -1.542247
 H         4.318555         0.963114        -0.788316
 H         3.082986         2.128491         1.778348
