19
Iteration:  2996
 C         4.307302        -1.663426         1.310584
 C         3.340014        -0.900500         0.435556
 O         1.961454        -1.511343         0.281509
 C         1.423794        -0.111462         0.118248
 C         0.089264         0.210387         0.743910
 C         1.916415         0.219645        -1.254089
 C         3.432674         0.229444        -0.709717
 C         2.773285         0.482913         0.632950
 O         2.951102         1.488374         1.525488
 H         4.844202        -1.017643         1.995333
 H         3.743204        -2.373510         2.009095
 H         4.993288        -2.200141         0.635446
 H        -0.033366        -0.349135         1.754372
 H         0.158317         1.313740         0.988332
 H        -0.821622         0.093301         0.134111
 H         1.886918        -0.402948        -2.207442
 H         1.666164         1.224481        -1.612641
 H         4.189743         0.917316        -1.140775
 H         2.153855         1.992277         1.615811
