19
Iteration:  3084charge 0 multiplicity 1
 C         4.361917        -1.844370         0.911223
 C         3.325953        -0.777474         0.589568
 O         1.898336        -1.440775         0.516226
 C         1.440013        -0.118412         0.222205
 C        -0.051990         0.093349         0.214401
 C         1.916106         0.155140        -1.235178
 C         3.308196         0.267303        -0.582471
 C         2.819488         0.675069         0.729205
 O         3.067446         1.552911         1.820433
 H         5.364386        -1.731696         0.536922
 H         4.539665        -1.637232         1.979126
 H         4.085516        -2.867026         0.782438
 H        -0.309767         0.426386         1.239349
 H        -0.360517         0.618360        -0.743220
 H        -0.563796        -0.897413         0.162562
 H         1.874077        -0.679493        -1.962487
 H         1.691536         1.182198        -1.431930
 H         4.306076         0.387608        -1.165648
 H         3.251773         2.446875         1.472923
