19
Iteration:  2655
 C         4.363179        -1.765111         1.043294
 C         3.237774        -0.856841         0.504715
 O         1.968900        -1.401513         0.285828
 C         1.401415        -0.096200         0.068956
 C         0.048036        -0.010423         0.783181
 C         1.989447         0.233361        -1.389239
 C         3.401284         0.189337        -0.617772
 C         2.735093         0.527263         0.801857
 O         3.007179         1.741590         1.598866
 H         4.844611        -1.427225         1.993541
 H         3.648551        -2.698305         1.218100
 H         5.058356        -2.194634         0.289663
 H         0.104244         0.138834         1.823647
 H        -0.621658         0.772897         0.509826
 H        -0.541988        -0.887874         0.650668
 H         1.864091        -0.416742        -2.273607
 H         1.849798         1.310048        -1.667849
 H         4.413207         0.243962        -0.952116
 H         2.422458         1.520789         2.328923
