19
Iteration:  1716charge 0 multiplicity 1
 C         4.467682        -1.690026         0.994914
 C         3.343231        -0.850702         0.459709
 O         2.038838        -1.569396         0.206073
 C         1.408032        -0.197445         0.064515
 C         0.008015         0.113385         0.503075
 C         2.044358         0.451353        -1.207803
 C         3.440819         0.499695        -0.492969
 C         2.678773         0.443573         0.754984
 O         2.764561         1.346290         1.869887
 H         4.735671        -2.484327         0.309076
 H         5.259585        -1.004598         1.108673
 H         4.259470        -2.164362         1.938765
 H        -0.697652         0.093277        -0.324962
 H        -0.439188        -0.672086         1.074449
 H        -0.215328         1.034714         1.020789
 H         2.061889        -0.165452        -2.082553
 H         1.837559         1.469385        -1.402700
 H         4.413451         0.743581        -0.996455
 H         2.009070         1.915862         1.652515
