19
Iteration:  1721charge 0 multiplicity 1
 C         4.469314        -1.696408         0.982923
 C         3.332951        -0.864026         0.427749
 O         2.064716        -1.584373         0.251129
 C         1.410022        -0.215882         0.077912
 C        -0.005107         0.143678         0.464264
 C         2.058668         0.434922        -1.220993
 C         3.414027         0.535090        -0.471822
 C         2.675121         0.433619         0.785186
 O         2.779265         1.314234         1.849551
 H         4.916488        -2.404781         0.235823
 H         5.313171        -0.895700         1.252505
 H         4.065363        -2.190707         1.917469
 H        -0.701901         0.131333        -0.409270
 H        -0.545193        -0.585231         1.178077
 H        -0.219738         1.066257         1.078012
 H         1.905170        -0.168090        -2.183174
 H         1.826616         1.522965        -1.553375
 H         4.293669         0.970166        -0.900668
 H         2.154689         2.052545         1.661685
