19
Iteration:  3527
 C         4.386996        -1.656806         0.926559
 C         3.248028        -0.800696         0.509378
 O         1.995853        -1.445928         0.220237
 C         1.440207        -0.078481         0.052122
 C        -0.018140         0.198902         0.373121
 C         2.111027         0.358233        -1.314369
 C         3.369836         0.422547        -0.455485
 C         2.670045         0.459668         0.829094
 O         2.930008         1.097119         1.994635
 H         4.210141        -1.989576         1.931351
 H         4.504065        -2.341459         0.048996
 H         5.265108        -1.029782         0.911969
 H        -0.569353        -0.686851        -0.073660
 H        -0.226701         0.341483         1.446094
 H        -0.415876         1.082181        -0.060524
 H         2.016870        -0.384354        -2.102257
 H         1.678965         1.369536        -1.490438
 H         4.401773         0.785358        -0.700734
 H         2.595247         2.023616         2.040793
