19
Iteration:    19
 C         4.306687        -1.845827         0.733721
 C         3.267682        -0.778673         0.428268
 O         2.052326        -1.289216        -0.217473
 C         1.499910         0.060444        -0.006325
 C        -0.011923        -0.096944         0.303876
 C         2.305134         0.684684        -1.204786
 C         3.596020         0.574691        -0.232257
 C         2.649617         0.438750         1.043873
 O         2.521937         1.043715         2.301233
 H         3.812790        -2.564445         1.356570
 H         4.611196        -2.312416        -0.199934
 H         5.293056        -1.505130         1.191079
 H        -0.036504        -0.294466         1.349093
 H        -0.574649         0.768460        -0.057045
 H        -0.322461        -0.985656        -0.289755
 H         2.327237        -0.020655        -2.007975
 H         2.088398         1.786830        -1.547352
 H         4.713031         0.758940        -0.380514
 H         2.301649         0.304966         2.879445
