19
Iteration:  4512charge 0 multiplicity 1
 C         4.249946        -1.718148         1.139884
 C         3.376436        -0.835230         0.352158
 O         2.063296        -1.395287        -0.106937
 C         1.416143        -0.072383         0.026881
 C         0.011537        -0.086976         0.602739
 C         2.134585         0.501250        -1.231349
 C         3.440595         0.481229        -0.478091
 C         2.732790         0.481846         0.832098
 O         2.743832         1.318400         1.911396
 H         4.084992        -2.788734         0.786457
 H         5.353063        -1.600538         1.136686
 H         3.778367        -1.643789         2.096698
 H        -0.523685        -0.913401         0.045768
 H         0.188571        -0.586600         1.561037
 H        -0.670780         0.875943         0.619620
 H         2.067365        -0.070133        -2.152983
 H         1.794288         1.513305        -1.443838
 H         4.280375         1.039414        -0.729658
 H         3.156900         0.836974         2.686813
