19
Iteration:  1724
 C         4.477060        -1.680211         0.979618
 C         3.323975        -0.871811         0.413891
 O         2.077458        -1.581745         0.270711
 C         1.425024        -0.209991         0.088766
 C        -0.033190         0.146988         0.447710
 C         2.070100         0.424721        -1.246981
 C         3.381722         0.531266        -0.481384
 C         2.680070         0.432289         0.824685
 O         2.783267         1.294268         1.840421
 H         4.993170        -2.341583         0.219057
 H         5.213468        -1.004351         1.325523
 H         4.009530        -2.190742         1.841206
 H        -0.655351         0.189020        -0.456759
 H        -0.491697        -0.515578         1.176589
 H        -0.112851         1.078239         1.031878
 H         1.847774        -0.147008        -2.171222
 H         1.748712         1.436713        -1.546354
 H         4.249963         1.126929        -0.774872
 H         2.300102         2.115417         1.691502
