19
Iteration:  2056charge 0 multiplicity 1
 C         4.478668        -1.664228         0.780978
 C         3.266705        -0.867568         0.519615
 O         1.836903        -1.477692         0.346316
 C         1.401490        -0.096766         0.061371
 C        -0.012386         0.255799         0.520769
 C         2.085069         0.193546        -1.265120
 C         3.450036         0.178514        -0.546381
 C         2.756110         0.529091         0.831511
 O         2.850093         1.408768         1.866560
 H         5.338360        -1.524878         0.105598
 H         4.877635        -1.194757         1.814201
 H         4.604164        -2.738534         1.101494
 H        -0.159114        -0.435303         1.325132
 H        -0.155551         1.219045         1.062257
 H        -0.853254         0.172867        -0.135136
 H         1.981212        -0.321623        -2.282809
 H         1.775954         1.267443        -1.406265
 H         4.471222         0.418715        -0.878067
 H         2.777147         2.332736         1.487511
