19
Iteration:  4555
 C         4.523675        -1.509421         1.019056
 C         3.254038        -0.837200         0.452347
 O         1.979046        -1.509677         0.182850
 C         1.439827        -0.085804        -0.036872
 C         0.010314         0.096732         0.340192
 C         2.079464         0.479221        -1.259245
 C         3.422567         0.427076        -0.554957
 C         2.612415         0.430898         0.861260
 O         2.834098         1.101738         2.030493
 H         4.626488        -2.486543         0.489562
 H         5.493219        -0.994691         0.794973
 H         4.388917        -1.527138         2.120580
 H        -0.778388         0.147400        -0.445710
 H        -0.413258        -0.596893         1.064397
 H         0.093858         1.201163         0.751727
 H         1.911347         0.082389        -2.238996
 H         1.711216         1.511975        -1.306083
 H         4.380005         0.814326        -0.824643
 H         2.235673         0.787369         2.745424
