19
Iteration:  3365
 C         4.493932        -1.502415         1.098936
 C         3.228814        -0.837787         0.508440
 O         1.968722        -1.476210         0.297209
 C         1.466920        -0.057633         0.106204
 C         0.015974         0.377005         0.359845
 C         1.938383         0.199412        -1.281200
 C         3.375549         0.270449        -0.615120
 C         2.726423         0.466329         0.710477
 O         2.902926         1.120638         1.913440
 H         5.224113        -1.915062         0.419733
 H         5.091650        -0.926422         1.832596
 H         4.108500        -2.358269         1.591466
 H        -0.123731         1.079237         1.153412
 H        -0.548750         0.655492        -0.528653
 H        -0.465007        -0.504375         0.624432
 H         1.750383        -0.681864        -1.862931
 H         1.805792         1.156658        -1.768713
 H         4.283013         0.525407        -1.061529
 H         2.742020         2.103774         2.010098
