19
Iteration:  4966charge 0 multiplicity 1
 C         4.368792        -1.617278         0.943611
 C         3.228014        -0.792259         0.425960
 O         2.065087        -1.432290         0.063157
 C         1.434877        -0.111349         0.062484
 C        -0.011800         0.016336         0.306481
 C         2.109130         0.582095        -1.210822
 C         3.406778         0.496192        -0.501181
 C         2.633276         0.496872         0.914362
 O         2.813583         1.059424         2.085204
 H         4.618092        -2.558321         0.412097
 H         5.286873        -1.067650         1.073641
 H         4.143930        -2.059611         1.979242
 H        -0.544774        -0.695160        -0.335885
 H        -0.289413         0.033516         1.374742
 H        -0.238260         1.051715        -0.020521
 H         2.182683        -0.052897        -2.038148
 H         1.650561         1.535592        -1.365990
 H         4.347516         0.855853        -0.850776
 H         3.515997         0.516111         2.534936
