19
Iteration:  2679
 C         4.321165        -1.834108         0.997123
 C         3.328590        -0.846950         0.494941
 O         1.965052        -1.477496         0.413810
 C         1.441815        -0.110355         0.245238
 C         0.017183         0.003069         0.552098
 C         1.916452         0.245451        -1.222611
 C         3.384184         0.336419        -0.595423
 C         2.777018         0.550213         0.760852
 O         3.029000         1.692960         1.508995
 H         5.105888        -1.298649         1.579804
 H         3.833669        -2.718245         1.536887
 H         4.822174        -2.296201         0.108767
 H        -0.383357         0.033400         1.587056
 H        -0.440166         0.907614         0.153905
 H        -0.576344        -0.799693         0.047516
 H         1.691053        -0.511424        -2.027913
 H         1.649398         1.290782        -1.542993
 H         4.303012         0.853453        -0.963470
 H         2.629789         1.420778         2.392703
