19
Iteration:  2567charge 0 multiplicity 1
 C         4.498194        -1.524369         0.979761
 C         3.236877        -0.881256         0.505267
 O         1.852432        -1.421940         0.543815
 C         1.359288        -0.121459         0.238100
 C        -0.087037         0.206050         0.473915
 C         1.973536         0.155509        -1.333688
 C         3.267915         0.248809        -0.717165
 C         2.779001         0.481682         0.705011
 O         3.146755         1.428210         1.708555
 H         4.292581        -1.908679         1.995650
 H         4.880245        -2.367847         0.279689
 H         5.284199        -0.717832         0.962627
 H        -0.455032        -0.255735         1.353787
 H        -0.024389         1.299470         0.494525
 H        -0.621194        -0.084088        -0.409244
 H         1.952340        -0.780243        -1.925161
 H         1.551126         0.991401        -1.935677
 H         4.254863         0.474269        -1.118789
 H         3.329148         0.915543         2.483767
