19
Iteration:  3743charge 0 multiplicity 1
 C         4.466181        -1.611755         0.814253
 C         3.243127        -0.853431         0.516868
 O         1.967044        -1.439606         0.162843
 C         1.463431         0.022640         0.073562
 C         0.089960         0.178444         0.306278
 C         2.094162         0.489254        -1.210308
 C         3.428650         0.430636        -0.469361
 C         2.727607         0.410301         0.870843
 O         2.682214         0.960556         2.118123
 H         4.545388        -2.459210         0.139783
 H         5.325057        -1.049854         0.333399
 H         4.761526        -2.043144         1.771829
 H        -0.334024         1.134693        -0.229338
 H        -0.516713        -0.640181        -0.136015
 H        -0.157107         0.469082         1.334347
 H         2.006797        -0.121956        -2.130378
 H         1.712990         1.551033        -1.390444
 H         4.504470         0.613909        -0.816069
 H         2.366646         1.844137         2.243221
