19
Iteration:  4183
 C         4.300080        -1.628347         1.072067
 C         3.278567        -0.879733         0.440239
 O         2.046112        -1.503862         0.031451
 C         1.416690        -0.045881         0.041300
 C        -0.037747        -0.014619         0.504897
 C         2.073480         0.529533        -1.230777
 C         3.474127         0.362464        -0.480338
 C         2.720248         0.394255         0.864737
 O         2.829135         1.313928         1.913572
 H         5.111187        -1.942116         0.284426
 H         4.808003        -0.988134         1.742851
 H         3.773491        -2.544120         1.475497
 H        -0.312637        -0.984385         0.827861
 H        -0.077896         0.615932         1.392449
 H        -0.799633         0.244107        -0.200316
 H         1.940867        -0.119284        -2.103694
 H         1.934381         1.612211        -1.503782
 H         4.380751         0.843544        -0.735017
 H         3.297249         2.123277         1.578732
