19
Iteration:  1551charge 0 multiplicity 1
 C         4.409674        -1.748704         0.952730
 C         3.425582        -0.816129         0.329731
 O         2.159656        -1.464152         0.083311
 C         1.473247        -0.064588         0.159166
 C        -0.007949         0.066229         0.330175
 C         2.042582         0.450513        -1.241756
 C         3.318723         0.528273        -0.424515
 C         2.717512         0.427106         0.887514
 O         2.634236         1.216362         2.050574
 H         4.400384        -1.453890         2.024535
 H         3.845008        -2.589653         0.779071
 H         5.366794        -1.874793         0.479203
 H        -0.398197        -0.204276         1.329966
 H        -0.340595         1.112383         0.243756
 H        -0.545590        -0.443067        -0.488235
 H         2.023442        -0.302071        -2.019573
 H         1.474982         1.294047        -1.507287
 H         4.163407         1.132532        -0.746516
 H         3.523308         1.618332         2.276783
