19
Iteration:  3465charge 0 multiplicity 1
 C         4.272536        -1.928157         1.068909
 C         3.336849        -0.897604         0.515296
 O         1.982514        -1.423028         0.161280
 C         1.475372        -0.074687         0.029092
 C        -0.058422        -0.153431         0.391953
 C         2.019467         0.696036        -1.099162
 C         3.381220         0.359084        -0.475903
 C         2.750565         0.416209         0.887416
 O         2.950213         1.523138         1.702664
 H         3.748955        -2.888624         1.189470
 H         5.147444        -2.278806         0.533236
 H         4.590734        -1.521067         2.037304
 H        -0.706878         0.223122        -0.438577
 H        -0.266121        -1.281493         0.446346
 H        -0.400236         0.371299         1.288295
 H         1.833076         0.406599        -2.159043
 H         1.705017         1.757754        -0.940974
 H         4.372913         0.977318        -0.506931
 H         3.688731         2.068428         1.340022
