19
Iteration:  3419
 C         4.327838        -1.783497         0.935402
 C         3.275884        -0.882293         0.568024
 O         1.985804        -1.389300         0.247205
 C         1.476112        -0.004167         0.109649
 C         0.007671         0.062367         0.388364
 C         2.089956         0.312894        -1.301316
 C         3.413096         0.326420        -0.470187
 C         2.672469         0.497117         0.884486
 O         2.883851         1.390041         1.864204
 H         4.127149        -2.744397         0.470922
 H         5.262321        -1.499082         0.397590
 H         4.516456        -1.909899         1.976229
 H        -0.450884         1.118162         0.416571
 H        -0.613777        -0.528975        -0.341457
 H        -0.147428        -0.342948         1.375617
 H         1.756000        -0.358677        -2.096459
 H         1.972924         1.364708        -1.653387
 H         4.413062         0.683198        -0.707605
 H         2.860871         2.302406         1.444119
