19
Iteration:   361
 C         4.231419        -1.903115         0.901114
 C         3.338436        -0.790867         0.344977
 O         2.118705        -1.278027        -0.267512
 C         1.486464        -0.068594         0.028798
 C        -0.062755        -0.075364         0.046807
 C         2.124252         0.831372        -0.982427
 C         3.487315         0.715859        -0.285362
 C         2.661643         0.393032         1.046464
 O         2.824299         0.820696         2.341699
 H         3.466715        -2.466132         1.548257
 H         4.748937        -2.516547         0.124724
 H         4.883159        -1.485347         1.614552
 H        -0.331200         0.933889        -0.270040
 H        -0.195071        -0.882252        -0.759270
 H        -0.417425        -0.380364         0.999512
 H         1.806997         0.411412        -1.975596
 H         1.779020         1.871563        -0.956695
 H         4.399597         1.343716        -0.710027
 H         2.347012         1.692025         2.424992
