19
Iteration:  4666
 C         4.247299        -1.870738         0.967364
 C         3.319139        -0.828690         0.415620
 O         2.080506        -1.431324        -0.086285
 C         1.453767        -0.051880         0.003047
 C         0.020224        -0.221212         0.454500
 C         2.080528         0.714276        -1.146971
 C         3.477949         0.417354        -0.436237
 C         2.711192         0.429503         0.934570
 O         2.808844         1.438696         1.964478
 H         4.957691        -2.039927         0.185990
 H         4.742710        -1.493641         1.938630
 H         3.797344        -2.757233         1.332630
 H        -0.238763        -1.250001         0.177244
 H         0.032925        -0.140235         1.495134
 H        -0.761547         0.564773         0.156513
 H         1.862852         0.157928        -2.045622
 H         1.843535         1.737650        -1.137863
 H         4.478283         0.927029        -0.670652
 H         2.108130         1.560644         2.628904
