19
Iteration:    88
 C         4.507107        -1.784412         0.819443
 C         3.326465        -0.927882         0.321616
 O         2.052604        -1.354269        -0.280952
 C         1.475587        -0.010225         0.014307
 C        -0.009198         0.131880         0.151100
 C         2.152276         0.811689        -1.033011
 C         3.448232         0.454739        -0.200636
 C         2.577631         0.219742         1.080721
 O         2.642776         1.051750         2.241514
 H         4.135027        -2.484651         1.558936
 H         4.931672        -2.315862        -0.036950
 H         5.335106        -1.201890         1.127389
 H        -0.079184         1.153335         0.338649
 H        -0.455636        -0.145799        -0.785103
 H        -0.404871        -0.442947         0.951777
 H         2.005487         0.525914        -1.978162
 H         1.989498         1.903978        -0.808200
 H         4.413999         0.836182        -0.040658
 H         2.029082         0.700499         2.882804
