19
Iteration:  4478charge 0 multiplicity 1
 C         4.263741        -1.837500         0.951118
 C         3.237716        -0.830324         0.573537
 O         1.998568        -1.434196         0.125449
 C         1.498684        -0.115604        -0.028885
 C         0.024481        -0.190824         0.401223
 C         2.129675         0.573840        -1.225864
 C         3.412276         0.531802        -0.478836
 C         2.774823         0.532840         0.821030
 O         2.797402         1.430486         1.913271
 H         4.297858        -2.515841         0.038624
 H         5.222104        -1.422546         1.203223
 H         3.981834        -2.314361         1.908255
 H        -0.257938        -1.243045         0.196223
 H         0.101374        -0.188323         1.547672
 H        -0.863485         0.582119         0.214552
 H         2.120748         0.170516        -2.205934
 H         1.763070         1.631142        -1.189930
 H         4.367842         0.780938        -0.814959
 H         3.199057         1.061238         2.742939
