19
Iteration:  2890charge 0 multiplicity 1
 C         4.475237        -1.699421         0.848057
 C         3.292929        -0.794026         0.487517
 O         1.956113        -1.484923         0.635788
 C         1.400307        -0.166144         0.242218
 C        -0.083386         0.162729         0.388872
 C         1.982320         0.201728        -1.255310
 C         3.298862         0.237937        -0.634204
 C         2.710647         0.527143         0.774077
 O         3.097163         1.554340         1.646513
 H         5.257928        -1.175993         1.459152
 H         4.007098        -2.527669         1.512455
 H         4.964965        -2.347214         0.067179
 H        -0.378224         0.538328         1.370178
 H        -0.209219         0.956390        -0.377369
 H        -0.673719        -0.725751         0.072575
 H         1.795255        -0.639829        -1.987533
 H         1.653313         1.202918        -1.569554
 H         4.304985         0.558968        -0.888735
 H         2.277320         1.856037         2.047432
