19
Iteration:  3923
 C         4.471717        -1.674156         0.842664
 C         3.263760        -0.795595         0.494325
 O         1.992651        -1.483519         0.187673
 C         1.421023         0.006076         0.036433
 C        -0.001399         0.098380         0.312230
 C         2.171351         0.502102        -1.214258
 C         3.448219         0.432925        -0.453061
 C         2.638886         0.441230         0.858515
 O         2.746943         1.083857         2.081274
 H         4.525610        -2.127632         1.880858
 H         4.382806        -2.519007         0.215802
 H         5.417890        -1.158034         0.735170
 H        -0.342037         0.846966         0.939082
 H        -0.564277         0.178815        -0.629458
 H        -0.392546        -0.869270         0.718597
 H         2.174820        -0.278288        -2.001454
 H         1.754761         1.489162        -1.543349
 H         4.391358         1.107663        -0.608204
 H         2.619056         2.024862         1.905409
