19
Iteration:  1397
 C         4.460663        -1.422948         0.953812
 C         3.149765        -0.846780         0.493985
 O         1.961881        -1.450498        -0.025183
 C         1.343697        -0.089255        -0.091637
 C        -0.100461        -0.135097         0.223238
 C         2.204945         0.514703        -1.199949
 C         3.448077         0.408446        -0.330632
 C         2.590146         0.465994         0.957496
 O         2.965709         1.091626         2.150150
 H         5.201556        -1.565606         0.145517
 H         5.037930        -0.807888         1.636547
 H         4.299325        -2.421566         1.399007
 H        -0.199490        -1.099435         0.728750
 H        -0.190414         0.710630         0.903164
 H        -0.882250         0.051075        -0.505125
 H         2.188301         0.132798        -2.219500
 H         1.828183         1.553450        -1.296424
 H         4.493617         0.816919        -0.426832
 H         2.980706         2.058454         1.990064
