19
Iteration:   135
 C         4.324143        -1.738332         0.779210
 C         3.239330        -0.737999         0.458292
 O         1.936250        -1.308631        -0.058276
 C         1.440379         0.016773        -0.078979
 C        -0.041100        -0.079588        -0.050390
 C         2.253008         0.831891        -1.144389
 C         3.417916         0.620489        -0.236307
 C         2.622697         0.454438         1.096675
 O         2.883251         0.782011         2.374892
 H         3.745663        -2.543666         1.313559
 H         4.738832        -2.121741        -0.172198
 H         5.223349        -1.379141         1.258614
 H        -0.576071         0.772003        -0.631960
 H        -0.171680        -1.088692        -0.470311
 H        -0.343980        -0.206647         0.996194
 H         2.456113         0.296440        -2.120153
 H         2.028494         1.797419        -1.233186
 H         4.523842         0.907677        -0.439889
 H         2.947535         0.026249         2.983513
