19
Iteration:   184charge 0 multiplicity 1
 C         4.320614        -1.864944         0.866288
 C         3.287313        -0.869169         0.347738
 O         2.068149        -1.367898        -0.202257
 C         1.475328        -0.059784        -0.049676
 C         0.006685        -0.041207         0.082927
 C         2.233309         0.939163        -0.992301
 C         3.448417         0.667447        -0.198713
 C         2.541920         0.348331         1.009259
 O         2.749326         0.955821         2.236188
 H         3.763957        -2.547832         1.496478
 H         4.908618        -2.383407         0.088682
 H         5.171856        -1.266183         1.330635
 H        -0.303732         0.890070        -0.340803
 H        -0.510879        -0.931483        -0.396263
 H        -0.284941        -0.084917         1.184608
 H         2.178923         0.637495        -2.043630
 H         1.726850         1.983842        -0.691983
 H         4.363612         1.095608        -0.374924
 H         2.908223         0.201768         2.841868
