19
Iteration:  2955
 C         4.264196        -1.600899         1.304032
 C         3.235181        -0.824615         0.510032
 O         1.941073        -1.434540         0.368193
 C         1.425007        -0.102188         0.066819
 C         0.111239         0.033387         0.640939
 C         1.910805         0.223948        -1.332196
 C         3.308180         0.243812        -0.734931
 C         2.805618         0.565246         0.614026
 O         3.061541         1.438871         1.640432
 H         4.615890        -0.926515         2.148464
 H         3.739313        -2.557585         1.669167
 H         5.095050        -1.932469         0.601403
 H         0.052020        -0.501675         1.565474
 H        -0.097768         0.998206         1.106874
 H        -0.678506        -0.329469        -0.024342
 H         1.539629        -0.559541        -2.066778
 H         1.584812         1.181954        -1.779748
 H         4.165775         0.757987        -1.248939
 H         3.986546         1.779248         1.486670
