19
Iteration:  3829charge 0 multiplicity 1
 C         4.297985        -1.781810         1.062567
 C         3.234923        -0.874294         0.298392
 O         2.032986        -1.412880        -0.077559
 C         1.426560        -0.092603        -0.046494
 C        -0.139508        -0.214566         0.372130
 C         2.114000         0.770751        -1.152330
 C         3.459398         0.451409        -0.425989
 C         2.760647         0.464216         0.989596
 O         2.919021         1.241683         2.089822
 H         3.711425        -2.250480         1.859023
 H         4.737203        -2.600512         0.402062
 H         5.005944        -1.064052         1.505441
 H        -0.742233         0.450279        -0.401419
 H        -0.355772        -1.298165         0.214986
 H        -0.427737         0.123659         1.424286
 H         2.224122         0.421207        -2.207679
 H         1.759593         1.796052        -1.088292
 H         4.493196         0.760979        -0.756424
 H         3.282884         2.159934         2.101154
