19
Iteration:  1391
 C         4.405234        -1.453905         0.936400
 C         3.167594        -0.819378         0.506176
 O         1.974969        -1.474521        -0.034147
 C         1.343745        -0.132310        -0.092080
 C        -0.118475        -0.129768         0.266601
 C         2.281639         0.558734        -1.204577
 C         3.398914         0.463579        -0.324941
 C         2.617245         0.420371         0.953568
 O         2.963456         1.106532         2.110668
 H         5.152472        -1.729973         0.155402
 H         5.014197        -0.772995         1.569349
 H         4.318059        -2.288835         1.653610
 H        -0.181250        -1.118294         0.741083
 H        -0.252693         0.648232         1.040429
 H        -0.823485         0.110412        -0.551643
 H         2.213906         0.101760        -2.231741
 H         1.905681         1.585387        -1.227421
 H         4.422899         0.811714        -0.433230
 H         2.826839         2.080053         1.993236
