19
Iteration:  3482
 C         4.251061        -1.845457         1.068413
 C         3.230930        -0.797142         0.471728
 O         2.004582        -1.374734         0.095343
 C         1.380996        -0.028931         0.177700
 C        -0.038174        -0.202478         0.407641
 C         2.087826         0.581978        -1.193719
 C         3.474001         0.341133        -0.500128
 C         2.709963         0.470670         0.872575
 O         2.959221         1.427247         1.817081
 H         3.566143        -2.654409         1.356263
 H         4.889798        -2.139976         0.196918
 H         4.844052        -1.601919         1.951975
 H        -0.529553        -0.137257        -0.595777
 H        -0.148157        -1.129544         0.938753
 H        -0.353029         0.592362         1.085958
 H         1.776959         0.093134        -2.121603
 H         2.029636         1.682426        -1.240414
 H         4.378935         0.741974        -0.837508
 H         3.730593         1.923969         1.444602
