19
Iteration:  4622charge 0 multiplicity 1
 C         4.396864        -1.777865         0.736096
 C         3.258377        -0.817760         0.522232
 O         2.032769        -1.486975         0.232298
 C         1.403310        -0.121473         0.044250
 C        -0.097336        -0.110119         0.235247
 C         2.181149         0.511557        -1.218989
 C         3.464464         0.544975        -0.373885
 C         2.660979         0.470712         0.943648
 O         2.834888         1.412860         1.982103
 H         4.886136        -1.931037        -0.200449
 H         5.064035        -1.634819         1.664630
 H         3.964571        -2.597037         1.231464
 H        -0.692229        -0.651642        -0.555143
 H        -0.419074        -0.565766         1.144471
 H        -0.400240         1.042056         0.334670
 H         2.024692         0.147778        -2.230115
 H         1.850688         1.522748        -1.203435
 H         4.525810         0.942293        -0.678932
 H         2.867051         0.958272         2.831080
