19
Iteration:  3921charge 0 multiplicity 1
 C         4.470774        -1.672293         0.811463
 C         3.259222        -0.784098         0.516759
 O         1.994673        -1.478546         0.198519
 C         1.416596         0.024982         0.050441
 C         0.013807         0.087647         0.295922
 C         2.187872         0.485810        -1.239855
 C         3.442614         0.415460        -0.449744
 C         2.623718         0.458828         0.877424
 O         2.754963         1.073535         2.094018
 H         4.538918        -2.073963         1.846658
 H         4.406419        -2.544206         0.234751
 H         5.431884        -1.171626         0.692887
 H        -0.378964         0.952363         0.913538
 H        -0.517903         0.161831        -0.728316
 H        -0.390473        -0.877452         0.687474
 H         2.103357        -0.268248        -2.020181
 H         1.669328         1.443423        -1.539138
 H         4.316884         1.091275        -0.610434
 H         2.616151         2.002719         1.932801
