19
Iteration:  4883
 C         4.404750        -1.829081         0.885349
 C         3.316453        -0.826451         0.422187
 O         1.997518        -1.424226         0.019243
 C         1.467524        -0.102544         0.060818
 C        -0.000640        -0.031078         0.410692
 C         2.127579         0.579924        -1.285881
 C         3.366929         0.540663        -0.334278
 C         2.690735         0.419044         0.944954
 O         2.793240         1.295382         2.012664
 H         5.155933        -1.827354         0.136060
 H         5.007043        -1.495009         1.800502
 H         3.966628        -2.758278         1.120551
 H        -0.557146        -0.754466        -0.191544
 H        -0.256467        -0.273491         1.398750
 H        -0.360300         0.985146         0.046016
 H         2.125499         0.042933        -2.284125
 H         1.935810         1.646160        -1.599014
 H         4.276702         1.098305        -0.477974
 H         2.340961         0.836458         2.720971
