19
Iteration:  4699charge 0 multiplicity 1
 C         4.331491        -1.711308         1.049880
 C         3.310740        -0.852739         0.379854
 O         2.013161        -1.485261         0.004673
 C         1.443732        -0.059027        -0.003647
 C         0.045468        -0.038223         0.474958
 C         2.126865         0.713356        -1.236912
 C         3.465588         0.544013        -0.458902
 C         2.640797         0.357449         0.892128
 O         2.757442         1.200332         1.951260
 H         4.995457        -2.142205         0.306953
 H         5.140443        -1.041616         1.552244
 H         3.922018        -2.489257         1.677468
 H        -0.467796        -0.993543         0.252683
 H         0.079467        -0.069310         1.505565
 H        -0.608393         0.753480         0.005091
 H         2.139759         0.168705        -2.166948
 H         1.707505         1.636660        -1.481068
 H         4.419475         1.100249        -0.488075
 H         2.729743         0.635353         2.789478
