19
Iteration:  2341
 C         4.289626        -1.674787         1.054644
 C         3.179370        -0.834653         0.533046
 O         1.876677        -1.383843         0.369000
 C         1.380895        -0.007292         0.053334
 C        -0.014051         0.003351         0.600479
 C         2.003022         0.240444        -1.311470
 C         3.389577         0.243099        -0.632004
 C         2.749197         0.520605         0.764942
 O         3.196508         1.520049         1.638301
 H         3.960155        -2.025509         2.096234
 H         4.274787        -2.688638         0.502369
 H         5.237228        -1.119692         1.063059
 H        -0.010040        -0.844647         1.370092
 H        -0.424435         0.922335         1.075665
 H        -0.585672        -0.350592        -0.302553
 H         1.801451        -0.478180        -2.122684
 H         1.682711         1.259115        -1.655927
 H         4.390261         0.527536        -0.997607
 H         3.540275         1.186161         2.519129
