19
Iteration:  2491
 C         4.228324        -1.893764         1.079138
 C         3.366233        -0.853005         0.538562
 O         2.021984        -1.421205         0.364554
 C         1.454919        -0.164927         0.207772
 C         0.026395         0.020369         0.643374
 C         1.894370         0.355881        -1.246023
 C         3.325325         0.302665        -0.601037
 C         2.762842         0.483795         0.759693
 O         3.029847         1.678064         1.408438
 H         3.574392        -2.628470         1.493826
 H         4.885291        -2.299000         0.280017
 H         4.871832        -1.544566         1.878969
 H        -0.140149        -0.161467         1.719888
 H        -0.115876         1.064346         0.298012
 H        -0.515731        -0.681458         0.023093
 H         1.536825        -0.115292        -2.178100
 H         1.782497         1.461512        -1.339720
 H         4.255609         0.617524        -1.109554
 H         3.108508         1.616512         2.405262
