19
Iteration:  4461
 C         4.388963        -1.818543         0.853152
 C         3.287731        -0.879647         0.435445
 O         2.009855        -1.414743         0.251497
 C         1.397796        -0.045390         0.090062
 C        -0.077828        -0.134067         0.339865
 C         2.132175         0.547480        -1.222750
 C         3.469305         0.444782        -0.443412
 C         2.712832         0.489054         0.913822
 O         2.820899         1.448405         1.897581
 H         4.773686        -2.337447         0.005904
 H         5.314469        -1.269995         1.277405
 H         4.019765        -2.488325         1.656276
 H        -0.476787        -1.068070        -0.057865
 H        -0.396009        -0.100619         1.359388
 H        -0.417551         0.633481        -0.265641
 H         1.919100        -0.074040        -2.168109
 H         1.771936         1.547549        -1.452253
 H         4.465699         0.892165        -0.643015
 H         2.768539         0.935577         2.738537
