19
Iteration:  1104charge 0 multiplicity 1
 C         4.353278        -1.609880         0.581705
 C         3.207686        -0.771102         0.618830
 O         1.994842        -1.400937         0.082027
 C         1.496015        -0.089767        -0.005033
 C         0.001490        -0.087350         0.301744
 C         2.401859         0.502931        -1.289550
 C         3.470325         0.577469        -0.317741
 C         2.614771         0.495205         0.983122
 O         2.592153         1.037117         2.215136
 H         4.099891        -2.636724         0.819195
 H         4.940987        -1.611641        -0.341384
 H         5.067472        -1.481355         1.415681
 H        -0.119512         0.135213         1.401136
 H        -0.501999         0.815011        -0.169566
 H        -0.386624        -1.094979         0.018627
 H         2.665928        -0.361120        -1.961077
 H         2.165317         1.443165        -1.885440
 H         4.560783         0.863018        -0.367586
 H         2.326131         1.977747         2.279892
