19
Iteration:  1546
 C         4.416552        -1.756443         0.957067
 C         3.458306        -0.837502         0.365333
 O         2.137798        -1.457878         0.063216
 C         1.474751        -0.093481         0.194616
 C         0.041012         0.059302         0.327303
 C         2.030202         0.491466        -1.239763
 C         3.342162         0.555114        -0.485888
 C         2.687341         0.378646         0.885150
 O         2.596531         1.237742         2.043147
 H         4.436191        -1.506658         2.017651
 H         3.785511        -2.755741         0.925747
 H         5.424345        -1.870873         0.501816
 H        -0.355764        -0.065613         1.358278
 H        -0.171033         1.153383         0.196697
 H        -0.675760        -0.582091        -0.253336
 H         1.968439        -0.269128        -2.044751
 H         1.488817         1.483480        -1.429886
 H         4.225479         1.213452        -0.647868
 H         3.486682         1.593720         2.055877
