19
Iteration:  4872charge 0 multiplicity 1
 C         4.347692        -1.888445         0.860769
 C         3.331214        -0.863712         0.479014
 O         2.066197        -1.423594        -0.036505
 C         1.459367        -0.052865         0.057189
 C         0.020688        -0.114380         0.426053
 C         2.084710         0.610051        -1.195186
 C         3.491538         0.544340        -0.408684
 C         2.652901         0.464800         0.913415
 O         2.744360         1.360662         1.978599
 H         5.109530        -2.280300         0.236246
 H         4.693198        -1.436290         1.844369
 H         3.789930        -2.731123         1.146919
 H        -0.451635        -0.724916        -0.339976
 H        -0.203877        -0.403487         1.407170
 H        -0.401063         0.945549         0.397042
 H         1.966003        -0.049631        -2.101990
 H         1.704726         1.668423        -1.212443
 H         4.410513         1.089472        -0.461421
 H         2.526967         0.980473         2.837577
