19
Iteration:  2767charge 0 multiplicity 1
 C         4.391046        -1.558247         1.146125
 C         3.304008        -0.808788         0.460192
 O         1.940436        -1.473135         0.402701
 C         1.424932        -0.209774         0.179565
 C        -0.091427         0.143113         0.594385
 C         1.932300         0.180114        -1.314893
 C         3.288053         0.309753        -0.706877
 C         2.777498         0.594696         0.630851
 O         3.102000         1.427359         1.659533
 H         5.398655        -1.480094         0.616882
 H         4.636450        -1.219750         2.265679
 H         4.218489        -2.678905         1.226201
 H        -0.303172        -0.530076         1.450186
 H        -0.039296         1.151357         0.959229
 H        -0.553979        -0.105431        -0.345844
 H         1.899282        -0.505927        -2.223728
 H         1.562150         1.190751        -1.646095
 H         4.247442         0.580953        -1.207294
 H         2.707606         0.965928         2.457875
