19
Iteration:  3608charge 0 multiplicity 1
 C         4.312849        -1.717959         0.978470
 C         3.255274        -0.858678         0.367686
 O         2.015987        -1.423988         0.044061
 C         1.379566        -0.121535        -0.045204
 C         0.012654         0.063929         0.524849
 C         2.164645         0.524181        -1.299298
 C         3.447105         0.475406        -0.468668
 C         2.650933         0.423425         0.891180
 O         2.871438         1.160873         2.114536
 H         4.941879        -1.130394         1.687809
 H         3.771542        -2.468986         1.518928
 H         4.938527        -2.102812         0.168087
 H         0.045498         0.278863         1.581911
 H        -0.277127         1.027983         0.008388
 H        -0.719753        -0.746932         0.168455
 H         2.072636        -0.178876        -2.165089
 H         1.796124         1.474700        -1.662225
 H         4.381878         0.943679        -0.607687
 H         2.940073         2.078225         1.805531
