19
Iteration:  4404charge 0 multiplicity 1
 C         4.553837        -1.537719         0.828516
 C         3.242788        -0.787122         0.497651
 O         1.902069        -1.516040         0.327499
 C         1.380348        -0.161262         0.061501
 C        -0.012744         0.147489         0.298144
 C         2.157988         0.331913        -1.335425
 C         3.365565         0.437542        -0.394924
 C         2.632995         0.422354         0.910046
 O         2.903115         1.256292         1.915492
 H         4.896662        -1.909773        -0.159971
 H         5.200904        -0.789094         1.398652
 H         4.459965        -2.451804         1.414284
 H        -0.571748        -0.061623        -0.581975
 H        -0.372596        -0.358227         1.117481
 H        -0.192199         1.169361         0.689655
 H         2.117099        -0.407022        -2.227948
 H         1.800118         1.357831        -1.510477
 H         4.302089         0.766532        -0.714061
 H         2.391612         1.038133         2.733928
