19
Iteration:  1561charge 0 multiplicity 1
 C         4.380853        -1.705080         0.915273
 C         3.329005        -0.757666         0.360959
 O         2.129475        -1.471163         0.117249
 C         1.447497        -0.095461         0.056367
 C        -0.081290         0.059119         0.333160
 C         2.048430         0.380128        -1.214540
 C         3.379752         0.554977        -0.461601
 C         2.736263         0.518802         0.927068
 O         2.708935         1.187379         2.084197
 H         4.577217        -1.634466         2.024032
 H         4.048334        -2.701717         0.824641
 H         5.375794        -1.663881         0.473917
 H        -0.438557        -0.635749         1.123983
 H        -0.388963         1.128614         0.373147
 H        -0.403854        -0.361911        -0.625227
 H         2.063828        -0.380496        -1.983142
 H         1.732891         1.311226        -1.627476
 H         4.348585         0.930732        -0.837403
 H         3.545692         1.532525         2.462712
