19
Iteration:   595charge 0 multiplicity 1
 C         4.469309        -1.629959         0.822292
 C         3.257089        -0.873233         0.359910
 O         1.982154        -1.393126        -0.114830
 C         1.489538        -0.020973        -0.019652
 C         0.031667         0.056701         0.246842
 C         2.246539         0.713734        -1.162699
 C         3.446090         0.580846        -0.267892
 C         2.630039         0.415382         0.968272
 O         2.644160         0.778554         2.294105
 H         4.209175        -2.142955         1.778482
 H         4.888919        -2.232754        -0.021188
 H         5.375057        -0.954499         1.095394
 H        -0.412345        -0.924855        -0.090702
 H        -0.311137         0.236274         1.277463
 H        -0.487585         0.885533        -0.369662
 H         2.348854         0.140837        -2.103659
 H         1.814675         1.828537        -1.400867
 H         4.477553         1.020218        -0.348327
 H         1.995005         1.491265         2.382095
