19
Iteration:  2658charge 0 multiplicity 1
 C         4.377887        -1.792412         1.033681
 C         3.220012        -0.871100         0.489950
 O         1.988217        -1.397644         0.285095
 C         1.415715        -0.111348         0.063858
 C         0.025897        -0.005685         0.749159
 C         1.985602         0.227143        -1.326487
 C         3.389874         0.187060        -0.618500
 C         2.729371         0.576588         0.797009
 O         3.015478         1.750999         1.601213
 H         4.789829        -1.425403         1.981836
 H         3.696778        -2.660837         1.273501
 H         5.015469        -2.257956         0.294333
 H         0.176810         0.090985         1.912551
 H        -0.640755         0.824721         0.426678
 H        -0.620245        -0.951330         0.649215
 H         1.887427        -0.440892        -2.226227
 H         1.847312         1.299534        -1.609856
 H         4.423481         0.287820        -1.047934
 H         2.406971         1.517099         2.316419
