19
Iteration:  4991
 C         4.281915        -1.754726         1.035520
 C         3.272202        -0.829726         0.353403
 O         2.040280        -1.413234        -0.075339
 C         1.437355        -0.030970         0.007102
 C         0.025690        -0.149741         0.451367
 C         2.122608         0.618053        -1.284611
 C         3.438841         0.505932        -0.462639
 C         2.716165         0.489098         0.910860
 O         2.797134         1.265493         2.072833
 H         4.009905        -2.742088         0.683349
 H         5.385819        -1.694715         0.876560
 H         4.116162        -1.844610         2.109088
 H        -0.539203        -0.762800        -0.298883
 H         0.019247        -0.736830         1.359871
 H        -0.455808         0.855367         0.811597
 H         2.196074         0.067863        -2.227224
 H         1.667384         1.642232        -1.324054
 H         4.344109         1.188461        -0.455746
 H         3.086463         0.666358         2.788159
