19
Iteration:  3492charge 0 multiplicity 1
 C         4.195313        -1.794157         1.006859
 C         3.245317        -0.876939         0.447718
 O         2.016690        -1.383958         0.097433
 C         1.446213        -0.010741         0.055735
 C        -0.083746        -0.142392         0.452274
 C         2.068046         0.467021        -1.234489
 C         3.437106         0.370281        -0.471372
 C         2.778015         0.542804         0.863685
 O         2.967537         1.410527         1.945034
 H         3.818839        -2.706545         1.474287
 H         4.877782        -2.260148         0.260193
 H         4.847778        -1.223265         1.681064
 H        -0.632692        -0.396970        -0.444126
 H        -0.203846        -1.002906         1.048832
 H        -0.575724         0.744341         0.861793
 H         1.961219        -0.011395        -2.210201
 H         1.841878         1.526473        -1.377537
 H         4.422178         0.595547        -0.707155
 H         3.626955         2.087204         1.717975
