19
Iteration:  1091charge 0 multiplicity 1
 C         4.407265        -1.694743         0.583548
 C         3.176241        -0.804920         0.598412
 O         2.039374        -1.393837         0.157491
 C         1.457624        -0.030156        -0.057707
 C         0.036818        -0.074906         0.231148
 C         2.326347         0.437858        -1.222250
 C         3.514686         0.585433        -0.257891
 C         2.670850         0.569588         0.928702
 O         2.562259         1.048941         2.268846
 H         3.982119        -2.700074         0.594236
 H         4.819417        -1.511317        -0.534530
 H         5.159589        -1.308655         1.367764
 H        -0.134310        -0.266975         1.341647
 H        -0.574789         0.759526        -0.207556
 H        -0.488221        -0.943365        -0.275789
 H         2.389922        -0.307040        -2.065576
 H         1.914526         1.488512        -1.739581
 H         4.531393         0.879830        -0.628734
 H         2.457218         2.007265         2.130784
