19
Iteration:  2169charge 0 multiplicity 1
 C         4.296229        -1.635794         1.148979
 C         3.172667        -0.897940         0.437903
 O         1.934928        -1.456589         0.286012
 C         1.374857        -0.018694         0.096724
 C        -0.128698        -0.013841         0.589111
 C         2.021032         0.385169        -1.314652
 C         3.348410         0.173530        -0.574933
 C         2.779031         0.480405         0.830550
 O         3.245267         1.445779         1.690684
 H         4.625548        -0.964767         1.967187
 H         4.066980        -2.714989         1.176525
 H         5.028697        -1.501104         0.349233
 H        -0.160906        -0.826335         1.368912
 H        -0.427394         0.956159         0.962016
 H        -0.820325        -0.253857        -0.243690
 H         1.781029        -0.046271        -2.296189
 H         2.009946         1.528657        -1.353571
 H         4.340620         0.477263        -0.914565
 H         3.083633         2.280458         1.221863
