19
Iteration:  4189
 C         4.350755        -1.650684         1.000926
 C         3.236421        -0.819110         0.482888
 O         2.007079        -1.468345         0.062246
 C         1.470492        -0.072892         0.053204
 C        -0.018548        -0.001572         0.469334
 C         2.096036         0.481677        -1.269007
 C         3.442555         0.368947        -0.498029
 C         2.669530         0.422657         0.881625
 O         2.837295         1.274306         1.928747
 H         5.093805        -2.007333         0.377529
 H         4.819806        -0.908745         1.752179
 H         3.999365        -2.466766         1.630108
 H        -0.213125        -1.094849         0.765913
 H        -0.072883         0.689812         1.345549
 H        -0.831222         0.348583        -0.232738
 H         1.816620        -0.117307        -2.161883
 H         1.834665         1.540556        -1.420027
 H         4.496609         0.798675        -0.522617
 H         3.342462         2.008310         1.581856
