19
Iteration:  2763
 C         4.433209        -1.576055         1.119541
 C         3.279188        -0.810058         0.492269
 O         1.910714        -1.471786         0.435360
 C         1.436460        -0.166973         0.159418
 C        -0.075028         0.131286         0.575570
 C         1.927321         0.167171        -1.348339
 C         3.305718         0.307101        -0.686417
 C         2.740987         0.596435         0.668713
 O         3.132354         1.413518         1.652617
 H         5.385133        -1.429636         0.642496
 H         4.614722        -1.171691         2.107824
 H         4.279095        -2.630952         1.156535
 H        -0.272353        -0.562271         1.358559
 H        -0.170039         1.156512         0.945804
 H        -0.645668        -0.080643        -0.325186
 H         1.975537        -0.534874        -2.151773
 H         1.460177         1.094213        -1.707499
 H         4.224126         0.786099        -1.125730
 H         2.657320         0.963691         2.345832
