19
Iteration:  3584
 C         4.505543        -1.550869         0.943936
 C         3.222941        -0.879134         0.428113
 O         1.957706        -1.480241         0.143692
 C         1.419012        -0.024682         0.035449
 C         0.026793         0.255482         0.446003
 C         2.144370         0.420662        -1.256895
 C         3.422028         0.347588        -0.488708
 C         2.715735         0.473676         0.793058
 O         2.730707         0.993968         2.074527
 H         5.058689        -1.223875         1.802647
 H         4.234051        -2.567231         1.076773
 H         5.078105        -1.467345         0.022584
 H        -0.203209        -0.222609         1.425676
 H        -0.092906         1.361498         0.574738
 H        -0.597452        -0.099503        -0.372328
 H         1.890605        -0.198182        -2.091237
 H         1.771108         1.419718        -1.513681
 H         4.410691         0.737496        -0.849296
 H         2.719425         1.951630         2.054493
