19
Iteration:   880
 C         4.451167        -1.777397         0.741915
 C         3.356589        -0.808731         0.474649
 O         2.077277        -1.425107         0.029545
 C         1.427365        -0.134338         0.022293
 C         0.031506        -0.139349         0.257617
 C         2.200260         0.670950        -1.133130
 C         3.424641         0.589171        -0.285392
 C         2.660231         0.400075         0.981605
 O         2.490827         1.251450         2.098761
 H         3.949245        -2.722397         1.066974
 H         4.988528        -2.035464        -0.151323
 H         5.163500        -1.533930         1.498039
 H        -0.108547        -0.833180         1.038620
 H        -0.363714         0.809309         0.450906
 H        -0.380972        -0.451282        -0.691099
 H         2.334611         0.074543        -2.063822
 H         1.667806         1.614020        -1.373966
 H         4.431012         1.125945        -0.472426
 H         3.361303         1.569504         2.365805
