19
Iteration:  4256charge 0 multiplicity 1
 C         4.541524        -1.707127         0.827786
 C         3.328922        -0.777363         0.593439
 O         1.898626        -1.490284         0.297672
 C         1.437213        -0.109363         0.083505
 C         0.002079         0.116947         0.155070
 C         2.059385         0.372646        -1.268194
 C         3.381996         0.469708        -0.544436
 C         2.695363         0.476777         0.871970
 O         2.894817         1.260105         2.107794
 H         4.291587        -2.679547         0.510546
 H         5.384954        -1.316549         0.274519
 H         4.657740        -1.834784         1.917347
 H        -0.494615        -0.907114        -0.105187
 H        -0.205633         0.254699         1.289565
 H        -0.494506         0.842800        -0.470465
 H         1.758818        -0.381899        -1.992788
 H         1.503545         1.319886        -1.459062
 H         4.280757         0.952239        -0.773728
 H         2.037715         1.765922         2.133927
