19
Iteration:  2276charge 0 multiplicity 1
 C         4.345652        -1.770116         0.924740
 C         3.199295        -0.952548         0.574449
 O         1.881364        -1.489469         0.361283
 C         1.484033        -0.105486         0.146102
 C         0.039085         0.258051         0.719404
 C         2.074710         0.261516        -1.260788
 C         3.419347         0.285219        -0.673190
 C         2.821145         0.496859         0.711087
 O         2.932039         1.525060         1.632109
 H         4.100679        -2.684679         1.569339
 H         5.047433        -2.251035         0.148951
 H         5.059994        -1.287673         1.613943
 H        -0.109877         0.443757         1.809614
 H        -0.378828         1.081300         0.162668
 H        -0.594977        -0.610474         0.537640
 H         1.815822        -0.337289        -2.149880
 H         1.752338         1.335485        -1.405487
 H         4.402222         0.528169        -1.038244
 H         2.062010         1.973267         1.580645
