19
Iteration:  1819
 C         4.318623        -1.736703         1.047548
 C         3.370182        -0.803848         0.415921
 O         2.109167        -1.481550         0.116708
 C         1.408423        -0.117166         0.082109
 C        -0.040896        -0.055722         0.454006
 C         2.004667         0.410212        -1.202899
 C         3.338478         0.420098        -0.582879
 C         2.761971         0.442469         0.894504
 O         2.875793         1.443308         1.888913
 H         5.140140        -1.137210         1.469135
 H         3.812701        -2.134432         2.016729
 H         4.546945        -2.610687         0.405999
 H        -0.630716        -1.002913         0.439210
 H        -0.261660         0.547443         1.393027
 H        -0.598752         0.655504        -0.249090
 H         1.503785        -0.063402        -2.063111
 H         1.571796         1.461929        -1.224567
 H         4.256244         0.748270        -0.967919
 H         3.736359         1.875337         1.814794
