19
Iteration:  3217charge 0 multiplicity 1
 C         4.501505        -1.522523         0.957379
 C         3.171467        -0.933054         0.622120
 O         1.833339        -1.432846         0.394799
 C         1.413514        -0.118584         0.145723
 C        -0.027538         0.319907         0.464198
 C         2.086347         0.112724        -1.233432
 C         3.447311         0.093064        -0.563287
 C         2.744542         0.473429         0.732418
 O         2.898047         1.467993         1.696630
 H         5.193684        -1.026535         1.617205
 H         4.208347        -2.518534         1.235696
 H         5.197962        -1.738637         0.142952
 H        -0.595462        -0.438925         0.999845
 H         0.007764         1.300000         1.012853
 H        -0.621822         0.466880        -0.516080
 H         1.872432        -0.700286        -1.947201
 H         1.803341         1.122403        -1.514971
 H         4.416203         0.186215        -0.953661
 H         3.525794         2.123592         1.395203
