19
Iteration:  1341charge 0 multiplicity 1
 C         4.274259        -1.792734         0.968114
 C         3.406244        -0.735280         0.389101
 O         2.243882        -1.399738         0.034591
 C         1.486372        -0.106342         0.128887
 C         0.030904        -0.141850         0.344662
 C         2.039165         0.645211        -1.214354
 C         3.484450         0.503072        -0.553596
 C         2.715657         0.515916         0.875978
 O         2.513063         1.129597         2.138908
 H         3.827181        -2.698852         0.594576
 H         5.385444        -1.856516         0.676439
 H         4.350216        -1.854437         2.074635
 H        -0.481400        -1.101139         0.599875
 H        -0.153231         0.539977         1.210347
 H        -0.251397         0.299339        -0.640129
 H         1.838856         0.116827        -2.119283
 H         1.702047         1.732922        -1.210465
 H         4.381367         0.888083        -0.967600
 H         2.813010         2.038409         2.170975
