19
Iteration:   953charge 0 multiplicity 1
 C         4.404670        -1.639608         0.984359
 C         3.386431        -0.766373         0.409634
 O         2.132217        -1.488234         0.043395
 C         1.478385        -0.173746         0.057879
 C        -0.075495         0.026067         0.234260
 C         2.096784         0.619267        -1.219725
 C         3.397750         0.704711        -0.454236
 C         2.693021         0.460570         0.885535
 O         2.680627         0.899668         2.160179
 H         4.145264        -2.025971         2.040732
 H         4.652584        -2.517888         0.452180
 H         5.362919        -1.131211         1.220484
 H        -0.412325        -0.938736         0.592625
 H        -0.255176         0.754249         1.070975
 H        -0.493396         0.598997        -0.590336
 H         2.081928        -0.007902        -2.152989
 H         1.675881         1.546094        -1.454738
 H         4.391292         1.154270        -0.886932
 H         2.037217         1.641225         2.109574
