19
Iteration:   235
 C         4.420340        -1.812045         0.707678
 C         3.289630        -0.879748         0.369767
 O         1.997413        -1.319065        -0.224010
 C         1.552785         0.001507        -0.039376
 C         0.050058         0.021043         0.331148
 C         2.295325         0.773441        -1.127271
 C         3.546943         0.568326        -0.200584
 C         2.667581         0.360176         1.008513
 O         2.450157         0.934911         2.315927
 H         4.026209        -2.539174         1.421666
 H         4.795668        -2.366548        -0.176872
 H         5.215924        -1.140832         1.209663
 H        -0.255970         0.995251         0.835484
 H        -0.405058        -0.042424        -0.693686
 H         0.020322        -0.914128         0.986822
 H         2.259023         0.210578        -2.164448
 H         2.076998         1.830564        -1.177465
 H         4.515450         1.021912        -0.098656
 H         1.479378         1.134842         2.218171
