19
Iteration:  1857
 C         4.388538        -1.746960         0.932004
 C         3.201834        -0.907196         0.540740
 O         1.993623        -1.462377         0.220457
 C         1.469501        -0.038124         0.006364
 C         0.024609        -0.042403         0.583115
 C         2.101002         0.439660        -1.285374
 C         3.404837         0.433398        -0.506461
 C         2.756961         0.435105         0.835657
 O         2.769865         1.417251         1.842493
 H         4.987731        -1.493278         1.878529
 H         3.948250        -2.728762         1.101245
 H         5.161261        -1.893115         0.124193
 H        -0.248378        -0.964726         1.076524
 H         0.082887         0.761435         1.342259
 H        -0.747767         0.312084        -0.151306
 H         2.169099        -0.074822        -2.302337
 H         1.832409         1.487517        -1.365871
 H         4.458112         0.647759        -0.869214
 H         2.734321         2.226530         1.317140
