19
Iteration:  2621charge 0 multiplicity 1
 C         4.356286        -1.635993         1.105924
 C         3.294828        -0.897185         0.463063
 O         1.890680        -1.445058         0.357745
 C         1.360338        -0.119606         0.023264
 C         0.091117         0.134788         0.767266
 C         1.976353         0.204141        -1.280987
 C         3.417224         0.318555        -0.675226
 C         2.791806         0.478488         0.646522
 O         2.940649         1.530589         1.597125
 H         4.593099        -1.390208         2.171454
 H         3.997189        -2.722093         1.205880
 H         5.353920        -1.576522         0.599878
 H         0.344043         0.164280         1.781842
 H        -0.317414         1.083774         0.413040
 H        -0.580308        -0.650214         0.569279
 H         1.787627        -0.412577        -2.166651
 H         1.565446         1.228992        -1.439793
 H         4.408786         0.417291        -1.057614
 H         2.855665         1.139840         2.459354
