19
Iteration:  4021charge 0 multiplicity 1
 C         4.285268        -1.697821         0.972300
 C         3.244293        -0.772462         0.468850
 O         2.038731        -1.360721         0.110226
 C         1.389538        -0.095284        -0.042114
 C        -0.016489        -0.060862         0.399169
 C         2.111880         0.487516        -1.209917
 C         3.423931         0.443351        -0.459781
 C         2.691628         0.499912         0.853045
 O         2.924999         1.170316         2.033786
 H         4.088118        -2.774697         0.918911
 H         5.159577        -1.596612         0.401064
 H         4.535476        -1.536397         2.011377
 H        -0.208730         0.427741         1.356610
 H        -0.592850         0.325741        -0.487419
 H        -0.270027        -1.201164         0.475038
 H         2.047105        -0.234048        -2.029467
 H         1.690185         1.446489        -1.484358
 H         4.425701         0.836324        -0.747633
 H         2.913419         2.142247         1.933790
