19
Iteration:  4972charge 0 multiplicity 1
 C         4.303142        -1.668857         0.965910
 C         3.258625        -0.759575         0.445485
 O         2.070756        -1.433355         0.029536
 C         1.435030        -0.109603         0.006907
 C         0.043550        -0.009472         0.332625
 C         2.099190         0.575841        -1.215728
 C         3.422541         0.540949        -0.435927
 C         2.631091         0.455716         0.903866
 O         2.821412         1.100260         2.075370
 H         4.403780        -2.560849         0.332926
 H         5.237497        -1.048329         0.953877
 H         4.105691        -1.809424         2.025501
 H        -0.545180        -0.777782        -0.196890
 H        -0.273025        -0.244391         1.382008
 H        -0.246852         1.036663         0.167343
 H         1.841406        -0.103340        -2.151979
 H         1.772340         1.633020        -1.424007
 H         4.404308         0.773060        -0.912549
 H         3.471782         0.572682         2.535198
