19
Iteration:   874charge 0 multiplicity 1
 C         4.433476        -1.857509         0.765928
 C         3.333861        -0.758416         0.439647
 O         2.150207        -1.381900         0.034877
 C         1.548197        -0.094998         0.045050
 C         0.028709        -0.169510         0.232739
 C         2.118168         0.629777        -1.157768
 C         3.415099         0.592999        -0.295414
 C         2.633243         0.441545         0.989004
 O         2.479935         1.235828         2.119582
 H         3.733558        -2.673511         1.031324
 H         5.018413        -2.154789        -0.165087
 H         5.217229        -1.649594         1.554413
 H        -0.315845        -0.737670         1.191652
 H        -0.357114         0.916146         0.388752
 H        -0.416963        -0.660164        -0.683873
 H         2.311245         0.159312        -2.151630
 H         1.684922         1.640359        -1.211981
 H         4.291712         1.025289        -0.625218
 H         3.379495         1.510379         2.405275
