19
Iteration:  1035charge 0 multiplicity 1
 C         4.433112        -1.621450         1.001714
 C         3.299892        -0.873437         0.473886
 O         2.112056        -1.486621        -0.153073
 C         1.399914        -0.183212         0.001387
 C        -0.035141        -0.060846         0.166927
 C         2.084043         0.777008        -1.062914
 C         3.411496         0.500704        -0.301933
 C         2.639971         0.322461         0.974457
 O         2.782933         1.148857         2.093068
 H         4.116670        -2.100008         1.963150
 H         4.723796        -2.436786         0.164515
 H         5.308362        -0.945403         1.243127
 H        -0.370513        -0.908175         0.848056
 H        -0.417403         0.827480         0.720280
 H        -0.502557        -0.237979        -0.852411
 H         1.919400         0.441243        -2.106775
 H         1.602271         1.846861        -0.792148
 H         4.311181         1.048290        -0.400817
 H         2.957730         1.961430         1.558534
