19
Iteration:  2977charge 0 multiplicity 1
 C         4.258312        -1.658231         1.384844
 C         3.305891        -0.909519         0.497159
 O         2.050902        -1.515641         0.301864
 C         1.457964        -0.132497         0.093697
 C         0.145081         0.148659         0.723853
 C         1.851459         0.277107        -1.355945
 C         3.287460         0.326201        -0.848747
 C         2.811456         0.458545         0.618895
 O         3.002153         1.484286         1.646603
 H         4.507065        -0.893764         2.194769
 H         3.521864        -2.430977         1.812178
 H         5.128119        -2.217347         0.891847
 H        -0.152184        -0.330416         1.618057
 H         0.098766         1.156225         1.171702
 H        -0.641424        -0.017870        -0.022707
 H         1.470890        -0.268087        -2.274875
 H         1.361337         1.273373        -1.491146
 H         4.365081         0.230807        -1.198052
 H         2.858638         2.313381         1.174733
