19
Iteration:  1097
 C         4.362827        -1.617282         0.563586
 C         3.147121        -0.794191         0.623616
 O         2.022349        -1.372479         0.124017
 C         1.520859        -0.096578        -0.019673
 C         0.004155        -0.080151         0.269444
 C         2.343606         0.490729        -1.249116
 C         3.520527         0.565953        -0.301906
 C         2.635002         0.531684         0.948503
 O         2.576737         1.039939         2.237420
 H         4.056023        -2.686571         0.653764
 H         4.877549        -1.628411        -0.348704
 H         5.066830        -1.454521         1.326470
 H        -0.119686        -0.135097         1.325195
 H        -0.488229         0.748906        -0.189403
 H        -0.432721        -1.018464        -0.036023
 H         2.718990        -0.275987        -1.948656
 H         2.210535         1.291086        -1.850441
 H         4.483789         0.898552        -0.579680
 H         2.388352         2.018984         2.296953
