19
Iteration:    33
 C         4.238076        -1.906722         0.689778
 C         3.274943        -0.852183         0.428667
 O         2.100893        -1.310655        -0.109074
 C         1.511845         0.091796        -0.071925
 C         0.103578        -0.089637         0.352701
 C         2.415745         0.726543        -1.216273
 C         3.476555         0.592043        -0.258980
 C         2.652874         0.448709         0.981701
 O         2.446345         1.029154         2.279051
 H         3.950942        -2.725672         1.321507
 H         4.514009        -2.309375        -0.282673
 H         5.095487        -1.401363         1.132892
 H        -0.007758         0.080797         1.374435
 H        -0.639126         0.582780        -0.053289
 H        -0.245705        -1.094654         0.204209
 H         2.455525         0.230910        -2.066857
 H         2.240728         1.811521        -1.383708
 H         4.242318         1.332837        -0.342644
 H         2.315497         0.316775         2.936111
