19
Iteration:  1814
 C         4.292340        -1.719521         1.060660
 C         3.324258        -0.810037         0.461236
 O         2.094859        -1.487293         0.150802
 C         1.403521        -0.156360         0.070480
 C        -0.032301        -0.032965         0.432787
 C         1.990554         0.448698        -1.235965
 C         3.374661         0.438209        -0.595222
 C         2.764795         0.442903         0.865067
 O         2.896919         1.420595         1.900490
 H         5.228222        -1.125420         1.188102
 H         4.013631        -2.046735         2.023857
 H         4.583672        -2.574567         0.462236
 H        -0.506785        -1.002967         0.390559
 H        -0.321007         0.337491         1.403710
 H        -0.666980         0.564383        -0.183655
 H         1.460866        -0.091265        -2.040329
 H         1.577998         1.432364        -1.222354
 H         4.344781         0.831703        -1.037884
 H         3.773995         1.851846         1.912043
