19
Iteration:  2362charge 0 multiplicity 1
 C         4.410524        -1.632220         1.011891
 C         3.222530        -0.793586         0.523856
 O         1.916444        -1.432336         0.472691
 C         1.307644        -0.065470         0.113741
 C        -0.113526         0.077862         0.446237
 C         1.997463         0.219384        -1.398279
 C         3.311327         0.164182        -0.632407
 C         2.737562         0.610919         0.715985
 O         3.211288         1.442167         1.813365
 H         4.449292        -1.719928         2.104117
 H         4.299333        -2.660619         0.565065
 H         5.226783        -1.061985         0.628192
 H        -0.407744        -0.492172         1.395623
 H        -0.207205         1.170415         0.725478
 H        -0.889942        -0.046050        -0.358584
 H         1.602923        -0.527389        -2.078153
 H         1.908525         1.233200        -1.818985
 H         4.336656         0.387879        -0.963299
 H         3.922866         1.034482         2.283253
