19
Iteration:  1230
 C         4.384541        -1.734454         0.877845
 C         3.297454        -0.714525         0.426764
 O         2.092705        -1.407213         0.083196
 C         1.447272        -0.106988         0.045265
 C        -0.072360        -0.156813         0.112881
 C         2.130312         0.648933        -1.205584
 C         3.440940         0.692777        -0.431833
 C         2.688545         0.532564         0.956977
 O         2.817100         0.947869         2.264007
 H         4.168919        -1.883911         1.924406
 H         3.985549        -2.700043         0.470901
 H         5.342590        -1.248060         0.655772
 H        -0.288088        -0.315847         1.194090
 H        -0.706896         0.652413        -0.272775
 H        -0.538492        -0.978809        -0.483016
 H         2.103421         0.010559        -2.084901
 H         1.712300         1.620321        -1.571898
 H         4.454464         1.014637        -0.802832
 H         2.186001         1.677579         2.466958
