19
Iteration:  2576charge 0 multiplicity 1
 C         4.452705        -1.521007         1.000598
 C         3.282618        -0.849646         0.471640
 O         1.906871        -1.456635         0.470769
 C         1.422701        -0.152571         0.262699
 C        -0.075300         0.271413         0.430227
 C         1.888561         0.127557        -1.274603
 C         3.317659         0.250193        -0.716181
 C         2.800262         0.512169         0.721032
 O         3.087653         1.400405         1.688708
 H         4.445782        -1.813299         2.107863
 H         4.610339        -2.534086         0.575701
 H         5.401976        -0.870704         0.993128
 H        -0.339985        -0.062825         1.381156
 H        -0.289457         1.338279         0.568609
 H        -0.860488        -0.082479        -0.173223
 H         1.666575        -0.789161        -1.854149
 H         1.505487         1.039189        -1.746714
 H         4.310256         0.495304        -1.207939
 H         3.335386         0.966577         2.484445
