19
Iteration:  4605charge 0 multiplicity 1
 C         4.467037        -1.675613         0.765732
 C         3.267638        -0.826319         0.557350
 O         2.006675        -1.456261         0.229829
 C         1.452018        -0.200455         0.033890
 C        -0.035849         0.048532         0.172852
 C         2.110455         0.479358        -1.209022
 C         3.328905         0.406657        -0.383557
 C         2.649459         0.520890         0.978353
 O         2.848909         1.339530         2.038126
 H         4.924481        -1.874084        -0.250838
 H         5.277567        -1.068948         1.145357
 H         4.210289        -2.692268         1.248705
 H        -0.622905        -0.180229        -0.735455
 H        -0.457416        -0.687835         0.948580
 H        -0.256410         1.041773         0.397486
 H         2.131784        -0.201981        -2.137439
 H         1.756573         1.472151        -1.665821
 H         4.303154         0.781846        -0.514346
 H         2.931323         0.687042         2.730190
