19
Iteration:   232charge 0 multiplicity 1
 C         4.413902        -1.802691         0.721972
 C         3.293351        -0.886702         0.347647
 O         1.986683        -1.308786        -0.247447
 C         1.514397         0.016145        -0.022746
 C         0.072946         0.001134         0.329672
 C         2.301126         0.744070        -1.130137
 C         3.546254         0.560247        -0.181198
 C         2.659737         0.374329         1.016608
 O         2.461070         0.938482         2.302463
 H         4.077281        -2.542176         1.479634
 H         4.898856        -2.314383        -0.126962
 H         5.169146        -1.165846         1.095997
 H        -0.264732         0.956208         0.776816
 H        -0.435200        -0.141382        -0.602671
 H        -0.053908        -0.844880         0.960575
 H         2.262578         0.262801        -2.119716
 H         2.169785         1.970131        -1.107724
 H         4.637227         0.972065        -0.077544
 H         1.513623         1.129479         2.287387
