19
Iteration:  1033charge 0 multiplicity 1
 C         4.430869        -1.613171         1.018960
 C         3.289918        -0.866793         0.460417
 O         2.108001        -1.478795        -0.154806
 C         1.401966        -0.159626        -0.017346
 C        -0.040186        -0.090502         0.186539
 C         2.095914         0.787302        -1.066479
 C         3.396294         0.496834        -0.300650
 C         2.628169         0.312286         0.970528
 O         2.795169         1.141899         2.088198
 H         4.171172        -2.113615         2.022433
 H         4.728972        -2.431621         0.252657
 H         5.305697        -0.983014         1.224110
 H        -0.399038        -0.913259         0.804137
 H        -0.323834         0.798027         0.731601
 H        -0.462592        -0.217474        -0.817117
 H         1.920416         0.458430        -2.118226
 H         1.659434         1.826838        -0.823361
 H         4.290516         1.033165        -0.398513
 H         2.989908         1.964893         1.591135
