19
Iteration:  4974
 C         4.290159        -1.673467         0.974680
 C         3.271102        -0.755720         0.444578
 O         2.066912        -1.434890         0.018921
 C         1.444885        -0.103343        -0.008111
 C         0.046887        -0.014723         0.341567
 C         2.090566         0.569596        -1.223427
 C         3.426373         0.551296        -0.422304
 C         2.637924         0.441774         0.891167
 O         2.821723         1.117661         2.079321
 H         4.338184        -2.565424         0.311750
 H         5.216938        -1.086681         0.904233
 H         4.083780        -1.789139         2.067178
 H        -0.550346        -0.758567        -0.181890
 H        -0.228385        -0.331242         1.407522
 H        -0.274592         0.968871         0.208627
 H         1.785629        -0.055147        -2.142154
 H         1.823453         1.604913        -1.422371
 H         4.382470         0.760528        -0.862541
 H         3.475237         0.585616         2.586323
