19
Iteration:   914
 C         4.606235        -1.526280         0.779674
 C         3.244266        -0.877364         0.554077
 O         2.021540        -1.459437        -0.076877
 C         1.439935        -0.120847        -0.048984
 C        -0.032691         0.018009         0.291330
 C         2.272666         0.628730        -1.126249
 C         3.425184         0.358620        -0.305825
 C         2.565478         0.327821         1.023197
 O         2.556312         1.163862         2.120864
 H         4.594444        -2.340903         1.495364
 H         4.966807        -1.818842        -0.235139
 H         5.216310        -0.697213         1.078947
 H        -0.424461        -0.946674         0.623097
 H        -0.213865         0.730929         1.086918
 H        -0.713579         0.036947        -0.553597
 H         2.259750         0.088755        -2.089917
 H         2.066171         1.754275        -1.273457
 H         4.471241         0.651761        -0.385838
 H         3.030888         1.994314         1.976829
