19
Iteration:   966
 C         4.348168        -1.653676         1.081698
 C         3.399952        -0.678581         0.364524
 O         2.148414        -1.403653         0.054523
 C         1.474070        -0.068971        -0.028869
 C         0.007761        -0.073241         0.283364
 C         2.072669         0.554474        -1.269297
 C         3.408299         0.672341        -0.512577
 C         2.645040         0.482297         0.871901
 O         2.743807         0.848820         2.207578
 H         3.741133        -1.949263         2.029592
 H         4.211664        -2.449805         0.352715
 H         5.384815        -1.382512         1.191948
 H        -0.477196        -0.984819         0.467232
 H        -0.252678         0.565130         1.106241
 H        -0.516722         0.290857        -0.586476
 H         2.038876        -0.075539        -2.229468
 H         1.622960         1.537711        -1.373479
 H         4.328546         1.363739        -0.676711
 H         2.149715         1.577430         2.465545
