19
Iteration:  2303
 C         4.313512        -1.871134         1.100840
 C         3.364858        -0.868656         0.447993
 O         1.989862        -1.526879         0.313331
 C         1.462461        -0.077004         0.094269
 C         0.071510         0.184880         0.631018
 C         1.874501         0.365530        -1.243994
 C         3.349376         0.240803        -0.664987
 C         2.711126         0.450142         0.833881
 O         3.058385         1.602264         1.556410
 H         3.705832        -2.355315         1.814252
 H         4.852746        -2.561239         0.572185
 H         5.110177        -1.500850         1.755688
 H        -0.046765        -0.161462         1.644189
 H        -0.364729         1.201441         0.442053
 H        -0.642648        -0.545994         0.184507
 H         1.254359         0.017101        -2.090802
 H         1.790170         1.434901        -1.126859
 H         4.335490         0.584565        -1.031006
 H         2.245680         2.029111         1.945928
