19
Iteration:  4216charge 0 multiplicity 1
 C         4.468954        -1.603032         0.873366
 C         3.256569        -0.803956         0.519724
 O         1.940733        -1.516084         0.299601
 C         1.423083        -0.098838         0.009438
 C        -0.129098         0.082309         0.268163
 C         2.113137         0.406042        -1.289915
 C         3.415552         0.426938        -0.527345
 C         2.764196         0.495101         0.904445
 O         2.849767         1.182980         2.082193
 H         4.744508        -2.291188        -0.033166
 H         5.281939        -0.950390         1.079738
 H         4.386490        -2.265644         1.797412
 H        -0.511045        -0.862347         0.496826
 H        -0.195195         0.723031         1.140355
 H        -0.702200         0.604872        -0.462063
 H         2.108045        -0.397440        -2.052196
 H         1.911830         1.389744        -1.790870
 H         4.348802         0.833222        -0.852709
 H         2.991716         2.122732         1.915506
