19
Iteration:  1393
 C         4.416056        -1.440565         0.933361
 C         3.159783        -0.825787         0.504458
 O         1.969911        -1.468339        -0.033996
 C         1.335349        -0.120064        -0.091471
 C        -0.111478        -0.133659         0.253597
 C         2.269900         0.538896        -1.202118
 C         3.416444         0.448332        -0.328588
 C         2.609834         0.432266         0.955483
 O         2.965994         1.103770         2.121398
 H         5.171715        -1.665613         0.191414
 H         5.072145        -0.779153         1.607028
 H         4.319634        -2.343249         1.600090
 H        -0.151340        -1.154225         0.754324
 H        -0.224831         0.701291         1.012398
 H        -0.885154         0.127582        -0.569291
 H         2.200709         0.135010        -2.210081
 H         1.864168         1.587880        -1.235818
 H         4.398194         0.794877        -0.419424
 H         2.871474         2.062973         2.001451
