19
Iteration:  1587
 C         4.480646        -1.535763         0.894473
 C         3.177399        -0.833444         0.528486
 O         1.916584        -1.404756         0.273046
 C         1.442525        -0.040347        -0.058558
 C        -0.010399        -0.099242         0.284003
 C         2.154509         0.506757        -1.348413
 C         3.366990         0.369306        -0.433248
 C         2.668750         0.524115         0.890578
 O         2.826934         1.173271         2.081642
 H         4.764392        -1.801218         1.897844
 H         4.396108        -2.603605         0.517294
 H         5.352277        -1.078015         0.396449
 H        -0.263295        -1.074245         0.679334
 H        -0.286647         0.755524         0.871084
 H        -0.547497        -0.107637        -0.687069
 H         2.173255        -0.080137        -2.290811
 H         1.783831         1.563132        -1.438956
 H         4.357906         0.740660        -0.658218
 H         3.761311         1.136178         2.388769
