19
Iteration:  1060
 C         4.496071        -1.771706         0.766994
 C         3.362212        -0.848998         0.399928
 O         2.113718        -1.442822         0.065021
 C         1.395216        -0.128626         0.085160
 C        -0.040330        -0.049408         0.131313
 C         2.158391         0.638894        -1.127370
 C         3.392509         0.527944        -0.289817
 C         2.662410         0.437965         1.000491
 O         2.616896         1.164928         2.190416
 H         4.128116        -2.591766         1.365443
 H         4.968418        -2.128264        -0.176245
 H         5.272628        -1.238932         1.374898
 H        -0.696707        -0.382781         0.981908
 H        -0.206435         1.085996         0.108580
 H        -0.323609        -0.433712        -0.889396
 H         2.048975         0.045147        -2.043622
 H         1.788371         1.701616        -1.159175
 H         4.345276         1.078328        -0.604283
 H         2.630992         2.068325         1.798101
