19
Iteration:  3512charge 0 multiplicity 1
 C         4.366708        -1.714933         0.965931
 C         3.222056        -0.823273         0.441088
 O         1.898679        -1.433076         0.163706
 C         1.391190        -0.087462         0.022197
 C        -0.008463         0.007745         0.400279
 C         2.120256         0.416274        -1.307714
 C         3.404213         0.453834        -0.512243
 C         2.710069         0.499350         0.896451
 O         2.974568         1.272075         2.071513
 H         3.978659        -2.484153         1.705742
 H         4.703946        -2.503684         0.275488
 H         5.253330        -1.144275         1.368710
 H        -0.656272        -0.591291        -0.167938
 H        -0.064423        -0.330276         1.414348
 H        -0.261269         1.106965         0.264279
 H         2.123755        -0.348966        -2.148508
 H         1.841751         1.340693        -1.804289
 H         4.344503         0.795218        -0.830598
 H         3.054878         2.158000         1.723333
