19
Iteration:  4650charge 0 multiplicity 1
 C         4.341435        -1.901178         0.884435
 C         3.295932        -0.892513         0.446895
 O         2.044138        -1.327417        -0.011429
 C         1.474829         0.005783         0.128733
 C         0.051695        -0.223566         0.376794
 C         2.082612         0.572399        -1.188137
 C         3.418895         0.470441        -0.386232
 C         2.674743         0.464460         0.998885
 O         2.819173         1.464022         1.924701
 H         5.170967        -2.157793         0.148053
 H         4.845727        -1.663995         1.790047
 H         3.647637        -2.791633         1.184426
 H        -0.247518        -1.105821        -0.198853
 H        -0.300116        -0.529942         1.421417
 H        -0.482391         0.567097        -0.043690
 H         1.826164         0.214560        -2.236938
 H         1.885321         1.719378        -1.354891
 H         4.359082         0.886664        -0.599196
 H         2.173607         1.182768         2.565777
