19
Iteration:   784charge 0 multiplicity 1
 C         4.537898        -1.500644         0.922595
 C         3.323071        -0.854394         0.377024
 O         2.081379        -1.441006        -0.155461
 C         1.419202        -0.089656         0.017605
 C        -0.028928         0.051734         0.238392
 C         2.125270         0.723124        -1.143717
 C         3.449665         0.447419        -0.311431
 C         2.641133         0.280776         0.944561
 O         2.563045         0.924408         2.246046
 H         4.419194        -1.940290         1.913733
 H         5.118914        -2.345591         0.400081
 H         5.278059        -0.665296         0.995123
 H        -0.171503         1.002261         0.863401
 H        -0.561015         0.247880        -0.761093
 H        -0.533011        -0.863134         0.730361
 H         2.087019         0.132901        -2.128637
 H         1.618411         1.724967        -1.346376
 H         4.406698         1.018472        -0.411467
 H         3.174821         1.674467         2.184442
