19
Iteration:  2676
 C         4.300261        -1.846113         1.003375
 C         3.345566        -0.854722         0.492925
 O         1.963722        -1.481252         0.387014
 C         1.413264        -0.109242         0.223442
 C         0.016456        -0.008881         0.568009
 C         1.943233         0.244343        -1.213456
 C         3.382671         0.310048        -0.589448
 C         2.781454         0.593247         0.733208
 O         3.022597         1.699803         1.529263
 H         5.071390        -1.279347         1.559755
 H         3.853405        -2.774805         1.549735
 H         4.934010        -2.221773         0.149453
 H        -0.221521         0.087427         1.588641
 H        -0.449268         0.890845         0.230045
 H        -0.564049        -0.795151         0.169309
 H         1.679071        -0.498384        -1.963211
 H         1.661325         1.272876        -1.525991
 H         4.225206         0.811554        -1.008413
 H         2.610011         1.519012         2.395319
