19
Iteration:  3657charge 0 multiplicity 1
 C         4.207405        -1.878331         0.994480
 C         3.374158        -0.814411         0.408017
 O         1.989943        -1.377937         0.082317
 C         1.408592        -0.067586         0.077719
 C        -0.125510        -0.265512         0.299834
 C         2.111866         0.730003        -1.143177
 C         3.422870         0.431904        -0.488698
 C         2.776725         0.493397         0.900897
 O         2.976434         1.277022         1.999641
 H         5.267106        -1.773980         0.726532
 H         3.938162        -1.703289         2.121869
 H         3.713150        -2.842556         0.590372
 H        -0.300686         0.413762         1.197925
 H        -0.784720        -0.005455        -0.507573
 H        -0.167121        -1.306656         0.499968
 H         1.975202         0.668254        -2.241048
 H         2.033891         1.857805        -0.953325
 H         4.454125         0.965423        -0.624977
 H         3.068029         2.225777         1.718601
