19
Iteration:  3726charge 0 multiplicity 1
 C         4.532756        -1.631306         0.712479
 C         3.201999        -0.860289         0.488162
 O         1.925451        -1.479303         0.228259
 C         1.459982        -0.150070         0.042192
 C        -0.049484         0.210027         0.217250
 C         2.149874         0.499320        -1.248756
 C         3.405079         0.471155        -0.482826
 C         2.715244         0.443831         0.963272
 O         2.795838         1.060649         2.223558
 H         4.803501        -2.385968        -0.059182
 H         5.314579        -0.926230         0.955680
 H         4.375809        -2.207561         1.674586
 H        -0.287367         1.195625        -0.099385
 H        -0.680443        -0.475356        -0.379320
 H        -0.406658        -0.029164         1.214534
 H         2.048253        -0.112516        -2.143814
 H         1.909323         1.539341        -1.504216
 H         4.390750         0.754014        -0.711723
 H         2.767719         1.981666         1.967867
