19
Iteration:   108
 C         4.398006        -1.712134         0.759576
 C         3.186651        -0.938863         0.463570
 O         1.974541        -1.414925        -0.199725
 C         1.416504        -0.050964        -0.043900
 C        -0.088970         0.055443         0.062334
 C         2.305315         0.844945        -1.023479
 C         3.496951         0.625036        -0.170620
 C         2.648261         0.320320         1.030305
 O         2.810095         0.910868         2.251084
 H         4.247643        -2.414692         1.548818
 H         4.969604        -2.119944        -0.074569
 H         5.090807        -0.894228         1.137154
 H        -0.521474         0.997800        -0.078930
 H        -0.555574        -0.653404        -0.647383
 H        -0.479632        -0.286166         1.047265
 H         2.469041         0.459364        -2.019372
 H         1.934693         2.021773        -0.991348
 H         4.457768         1.064014        -0.221634
 H         2.245416         0.595126         2.971912
