19
Iteration:  4617
 C         4.437690        -1.722863         0.730645
 C         3.246324        -0.808470         0.550064
 O         2.032967        -1.478639         0.245694
 C         1.383211        -0.138800         0.025965
 C        -0.079752        -0.073508         0.228099
 C         2.171482         0.486825        -1.261669
 C         3.409748         0.494140        -0.354110
 C         2.667667         0.485420         0.918000
 O         2.842421         1.388869         2.015548
 H         4.872957        -2.021683        -0.270205
 H         5.103941        -1.503792         1.525535
 H         3.985500        -2.679610         1.229232
 H        -0.534248        -0.402103        -0.701791
 H        -0.551497        -0.510879         1.153687
 H        -0.220971         0.942652         0.347499
 H         2.197122         0.063697        -2.294448
 H         1.760207         1.541986        -1.075819
 H         4.350073         0.846783        -0.579111
 H         2.960255         0.933595         2.875063
