19
Iteration:   875charge 0 multiplicity 1
 C         4.438378        -1.843589         0.760461
 C         3.335052        -0.763321         0.444280
 O         2.138296        -1.387045         0.034931
 C         1.529836        -0.101688         0.040960
 C         0.029749        -0.165373         0.236090
 C         2.129099         0.638572        -1.150585
 C         3.415391         0.589881        -0.291140
 C         2.637789         0.431936         0.985840
 O         2.481088         1.238972         2.116215
 H         3.735885        -2.709368         1.041587
 H         5.017854        -2.138029        -0.159634
 H         5.234701        -1.632166         1.558979
 H        -0.283294        -0.753805         1.176279
 H        -0.358203         0.906957         0.402545
 H        -0.403701        -0.626277        -0.690434
 H         2.340650         0.127980        -2.171308
 H         1.673179         1.632157        -1.237691
 H         4.322582         1.049226        -0.614764
 H         3.383645         1.520689         2.400581
