19
Iteration:  2129
 C         4.195863        -1.733347         1.129516
 C         3.301830        -0.795670         0.494654
 O         2.057068        -1.388348         0.291887
 C         1.403509        -0.040358         0.084301
 C        -0.012288         0.045069         0.586175
 C         1.919295         0.223294        -1.349127
 C         3.309906         0.332270        -0.711269
 C         2.826944         0.522762         0.733641
 O         3.106997         1.404026         1.838362
 H         5.028107        -1.461707         1.734993
 H         3.667344        -2.377455         1.769791
 H         4.606458        -2.409303         0.366089
 H        -0.240333        -0.892846         1.106801
 H        -0.280415         0.859584         1.303341
 H        -0.673846         0.151683        -0.316811
 H         1.681275        -0.539959        -2.090183
 H         1.509858         1.151353        -1.654925
 H         4.298708         0.742024        -0.997205
 H         3.215199         2.323999         1.507274
