19
Iteration:   829charge 0 multiplicity 1
 C         4.353458        -1.760724         0.901938
 C         3.310702        -0.766942         0.382879
 O         2.095157        -1.374874        -0.069789
 C         1.469381        -0.076854         0.020654
 C         0.032766        -0.230653         0.304300
 C         2.209310         0.739388        -1.187919
 C         3.420622         0.645257        -0.294320
 C         2.647194         0.391273         0.895331
 O         2.562793         1.102569         2.143751
 H         3.867405        -2.431134         1.621996
 H         5.021245        -2.391330         0.183212
 H         5.158268        -1.121078         1.383513
 H        -0.197931         0.093394         1.396427
 H        -0.578208         0.445541        -0.420309
 H        -0.120236        -1.359829         0.160908
 H         1.958832         0.250900        -2.186231
 H         1.911700         1.825479        -1.219994
 H         4.436120         0.894893        -0.444779
 H         3.450241         1.303543         2.492855
