19
Iteration:  2098charge 0 multiplicity 1
 C         4.442974        -1.631275         1.000060
 C         3.236033        -0.920511         0.459279
 O         1.974457        -1.483764         0.347123
 C         1.428031        -0.112608         0.126260
 C        -0.006762         0.273208         0.512430
 C         1.990336         0.235268        -1.213109
 C         3.345118         0.302247        -0.617835
 C         2.797256         0.481220         0.705939
 O         2.925310         1.356926         1.814418
 H         5.387662        -1.232900         0.687944
 H         4.259399        -1.870006         2.074410
 H         4.300484        -2.664474         0.594560
 H        -0.339243        -0.600714         0.993184
 H        -0.070902         1.157975         1.158013
 H        -0.577652         0.514484        -0.369028
 H         1.812757        -0.445070        -2.076889
 H         1.620144         1.235325        -1.336098
 H         4.320276         0.564012        -1.048011
 H         2.863758         2.274757         1.493215
