19
Iteration:  3383
 C         4.372397        -1.569713         0.945347
 C         3.266177        -0.775167         0.446028
 O         1.929000        -1.446943         0.441931
 C         1.450427        -0.083163         0.039342
 C        -0.036071         0.262479         0.393499
 C         2.136196         0.144512        -1.413034
 C         3.421619         0.298073        -0.640793
 C         2.723129         0.540685         0.778162
 O         2.894189         1.170511         2.054974
 H         4.732064        -2.189284         0.093187
 H         5.031571        -0.781403         1.374307
 H         4.117032        -2.219907         1.826367
 H         0.128469         1.243685         1.040035
 H        -0.608349         0.453849        -0.543184
 H        -0.514941        -0.558490         1.086741
 H         2.011757        -0.709795        -2.113560
 H         1.719726         1.135436        -1.793503
 H         4.421525         0.554213        -0.996636
 H         2.551180         2.113714         1.932252
