19
Iteration:    77
 C         4.427899        -1.859610         0.739918
 C         3.326904        -0.939917         0.348871
 O         2.138358        -1.377399        -0.241788
 C         1.488372        -0.051992         0.033708
 C         0.043005         0.158318         0.220329
 C         2.171620         0.831044        -1.023397
 C         3.511132         0.478190        -0.252843
 C         2.600724         0.239359         1.063493
 O         2.523837         1.081834         2.201175
 H         4.172765        -2.457124         1.605488
 H         4.922255        -2.512749         0.030675
 H         5.050547        -1.135246         1.208981
 H        -0.200958         1.054935         0.659280
 H        -0.502101         0.187298        -0.703603
 H        -0.402255        -0.594718         0.833900
 H         2.016178         0.613107        -1.978362
 H         1.915190         1.930071        -0.926519
 H         4.252224         1.212207        -0.179930
 H         2.112097         0.598872         2.958766
