19
Iteration:   386charge 0 multiplicity 1
 C         4.185443        -1.844045         0.796147
 C         3.324119        -0.768960         0.396916
 O         2.136585        -1.325474        -0.110341
 C         1.506196        -0.003443        -0.030628
 C        -0.036138        -0.081518         0.153849
 C         2.213953         0.863098        -1.194945
 C         3.466254         0.698243        -0.292568
 C         2.694767         0.416128         1.023611
 O         2.734985         0.747823         2.368046
 H         3.538162        -2.492314         1.407233
 H         4.516770        -2.212830        -0.160788
 H         5.121819        -1.653898         1.434327
 H        -0.410070         0.832681        -0.302061
 H        -0.264546        -1.069484        -0.232553
 H        -0.333715        -0.149190         1.229582
 H         2.103991         0.438168        -2.094316
 H         1.979301         1.965468        -1.347642
 H         4.346664         1.278335        -0.321555
 H         1.976818         1.383650         2.470208
