19
Iteration:  2648
 C         4.292047        -1.730821         1.054436
 C         3.300296        -0.833806         0.541503
 O         1.913845        -1.438759         0.301214
 C         1.389596        -0.047303         0.096373
 C         0.092688        -0.006417         0.825356
 C         2.035823         0.270414        -1.484257
 C         3.384121         0.196656        -0.602239
 C         2.762614         0.472559         0.760264
 O         2.971094         1.668758         1.576512
 H         4.874782        -1.441812         1.923321
 H         3.829497        -2.679656         1.260538
 H         5.105747        -1.841743         0.335573
 H         0.181080         0.195995         1.993040
 H        -0.573057         0.836305         0.467541
 H        -0.428254        -1.016893         0.596286
 H         1.730504        -0.454845        -2.284314
 H         1.793090         1.304174        -1.799561
 H         4.475921         0.372856        -0.839855
 H         2.534403         1.644319         2.421204
