19
Iteration:  4061
 C         4.525724        -1.628941         0.804983
 C         3.264560        -0.859605         0.432156
 O         1.981241        -1.499992         0.376594
 C         1.403533        -0.171145         0.065282
 C        -0.138449         0.175581         0.069715
 C         2.053403         0.451322        -1.196817
 C         3.343820         0.392676        -0.452720
 C         2.714095         0.425276         0.966597
 O         2.941952         1.185048         2.108155
 H         4.927952        -2.516814         0.196693
 H         5.239285        -0.752635         0.580628
 H         4.528367        -1.727509         1.938392
 H        -0.328509         0.479925         1.161116
 H        -0.510248         0.988391        -0.599293
 H        -0.739480        -0.698872        -0.039718
 H         2.014917        -0.089167        -2.157466
 H         1.827150         1.538208        -1.437882
 H         4.282114         0.722406        -1.020750
 H         2.753314         2.097156         1.801280
