19
Iteration:  4842charge 0 multiplicity 1
 C         4.230167        -1.917479         0.900130
 C         3.329212        -0.856156         0.450983
 O         2.062909        -1.405622        -0.019245
 C         1.506792        -0.094545         0.062811
 C         0.042641        -0.307375         0.464292
 C         2.140479         0.795895        -1.184934
 C         3.466812         0.486411        -0.420924
 C         2.699251         0.422848         0.919615
 O         2.717461         1.462206         1.907084
 H         4.715561        -2.736475         0.344595
 H         5.094393        -1.441037         1.505916
 H         3.492697        -2.492645         1.547779
 H        -0.519822        -0.253585        -0.478258
 H        -0.103850        -1.218701         1.114740
 H        -0.274775         0.659995         0.871357
 H         1.964510         0.562487        -2.260363
 H         1.909220         1.861677        -1.083007
 H         4.429152         1.009426        -0.530086
 H         2.591712         1.237898         2.874164
