19
Iteration:  1215charge 0 multiplicity 1
 C         4.240806        -1.616301         0.914777
 C         3.305432        -0.679835         0.409397
 O         2.072821        -1.321435        -0.053669
 C         1.397422        -0.043845        -0.051327
 C        -0.042192        -0.260667         0.214475
 C         2.185423         0.565663        -1.263290
 C         3.429638         0.593246        -0.368817
 C         2.651846         0.515763         0.951741
 O         2.903061         0.936963         2.334960
 H         4.146860        -1.767376         2.072665
 H         4.002307        -2.502596         0.395729
 H         5.283671        -1.438765         0.644493
 H        -0.360149        -0.232649         1.282240
 H        -0.554593         0.565995        -0.367142
 H        -0.269478        -1.322208        -0.105579
 H         2.219809        -0.067632        -2.208217
 H         1.840582         1.549072        -1.449329
 H         4.374938         1.114720        -0.524618
 H         2.454439         1.804105         2.509095
