19
Iteration:  4905charge 0 multiplicity 1
 C         4.489788        -1.588892         0.740191
 C         3.209042        -0.821692         0.496012
 O         1.975546        -1.504044         0.126511
 C         1.422563        -0.065132        -0.026770
 C        -0.059647         0.107779         0.296425
 C         2.141976         0.467257        -1.201619
 C         3.486684         0.477049        -0.374433
 C         2.643520         0.436731         0.913841
 O         2.851411         1.121434         2.107437
 H         5.321787        -1.448130         0.096928
 H         4.772696        -1.092389         1.727899
 H         4.215831        -2.520303         1.120821
 H        -0.707639        -0.721711         0.005236
 H        -0.240697         0.167053         1.329570
 H        -0.444131         1.055851        -0.220857
 H         2.061373        -0.096149        -2.200711
 H         1.766402         1.492256        -1.497533
 H         4.509483         0.794020        -0.639904
 H         2.274511         0.768589         2.842166
