19
Iteration:  1365
 C         4.401004        -1.722624         1.021201
 C         3.324454        -0.813940         0.407927
 O         2.077307        -1.449543        -0.012986
 C         1.424489        -0.077008         0.047254
 C        -0.019833        -0.112641         0.280715
 C         2.113137         0.627734        -1.217375
 C         3.393781         0.594903        -0.421032
 C         2.683408         0.408317         0.902420
 O         2.757257         1.137932         2.090305
 H         4.569887        -2.665964         0.451791
 H         5.366289        -1.289396         1.205876
 H         4.093990        -1.983734         2.034213
 H        -0.282306        -1.090011         0.609125
 H        -0.177143         0.503292         1.156449
 H        -0.551999         0.212977        -0.577969
 H         1.982396         0.053832        -2.144729
 H         1.602959         1.603234        -1.243799
 H         4.364778         1.126835        -0.446280
 H         2.600724         2.092249         1.890504
