19
Iteration:  2055
 C         4.463664        -1.668859         0.788578
 C         3.277420        -0.866503         0.520301
 O         1.844327        -1.477836         0.339468
 C         1.403844        -0.093846         0.067768
 C        -0.019972         0.250132         0.525406
 C         2.080210         0.194523        -1.260644
 C         3.459959         0.189039        -0.555469
 C         2.756743         0.522479         0.831602
 O         2.849288         1.410935         1.868704
 H         5.289079        -1.522816         0.087316
 H         4.865870        -1.192083         1.785207
 H         4.591039        -2.728765         1.107528
 H        -0.158731        -0.420247         1.316109
 H        -0.151857         1.233644         1.020877
 H        -0.840368         0.169144        -0.145856
 H         1.950480        -0.360259        -2.250811
 H         1.777835         1.243676        -1.420414
 H         4.481790         0.432396        -0.887384
 H         2.793148         2.325862         1.479659
