19
Iteration:  4194
 C         4.403743        -1.647383         0.979770
 C         3.214858        -0.821918         0.492730
 O         1.969916        -1.420476         0.101166
 C         1.472779        -0.095602         0.038987
 C         0.011653        -0.002055         0.442221
 C         2.120169         0.436037        -1.291444
 C         3.408830         0.384694        -0.492694
 C         2.625195         0.473075         0.872573
 O         2.844792         1.240249         1.956866
 H         5.184929        -2.119035         0.225890
 H         4.895200        -1.022666         1.683148
 H         4.155036        -2.424246         1.775278
 H        -0.202964        -0.982500         0.737472
 H        -0.103821         0.657263         1.298341
 H        -0.634789         0.406227        -0.311732
 H         1.831237        -0.094325        -2.204468
 H         1.719925         1.494178        -1.350734
 H         4.412109         0.690017        -0.476440
 H         3.381130         1.992682         1.613929
