19
Iteration:   893charge 0 multiplicity 1
 C         4.513136        -1.698713         0.724642
 C         3.228529        -0.885853         0.489128
 O         2.022808        -1.504385        -0.000054
 C         1.552543        -0.081922         0.013436
 C        -0.069449        -0.117633         0.268050
 C         2.248150         0.626086        -1.176667
 C         3.478692         0.585384        -0.226430
 C         2.633632         0.407084         0.995620
 O         2.517636         1.236734         2.072998
 H         4.343524        -2.621641         1.168465
 H         5.091293        -1.756339        -0.226535
 H         5.085616        -1.039494         1.343589
 H        -0.380679        -0.928151         0.966266
 H        -0.348265         0.797261         0.829856
 H        -0.742573        -0.319023        -0.579472
 H         2.163342         0.110584        -2.078952
 H         2.055213         1.722675        -1.264721
 H         4.451549         1.024665        -0.184731
 H         3.363905         1.712759         2.236423
