19
Iteration:  2549
 C         4.441606        -1.511991         0.909277
 C         3.175266        -0.870433         0.557651
 O         1.858354        -1.455649         0.580676
 C         1.382454        -0.052760         0.053636
 C        -0.053662         0.160565         0.436473
 C         1.934305         0.100632        -1.328171
 C         3.336890         0.164823        -0.578320
 C         2.722346         0.594969         0.737725
 O         3.249430         1.467105         1.683803
 H         4.500770        -2.307688         1.629400
 H         4.935501        -2.043053         0.085429
 H         5.076182        -0.766691         1.296065
 H        -0.118146        -0.621619         1.367361
 H        -0.460875         1.149781         0.730569
 H        -0.918828        -0.161495        -0.281662
 H         1.630658        -0.642627        -2.075261
 H         1.733840         1.146847        -1.625661
 H         4.312079         0.403460        -0.918456
 H         3.084282         1.078686         2.531073
