19
Iteration:   282charge 0 multiplicity 1
 C         4.424831        -1.791965         0.725222
 C         3.356779        -0.793067         0.389618
 O         2.095979        -1.410077        -0.110080
 C         1.486308        -0.044414         0.025535
 C         0.021547         0.131727         0.125256
 C         2.220760         0.762317        -1.098963
 C         3.465772         0.628303        -0.270982
 C         2.616743         0.312302         1.062172
 O         2.494751         0.812940         2.323642
 H         3.943827        -2.637150         1.267787
 H         4.741538        -2.244139        -0.251876
 H         5.315424        -1.313091         1.208122
 H        -0.069989         0.943320         0.886912
 H        -0.367796         0.607188        -0.863024
 H        -0.445874        -0.833135         0.563893
 H         2.329577         0.201744        -2.100953
 H         1.818336         1.720234        -1.177270
 H         4.349942         1.280626        -0.337916
 H         2.580297         1.789617         2.330575
