19
Iteration:   276charge 0 multiplicity 1
 C         4.406964        -1.813805         0.687136
 C         3.380762        -0.792589         0.437755
 O         2.113284        -1.395470        -0.079024
 C         1.501426        -0.113121        -0.011185
 C         0.050258         0.158428         0.155764
 C         2.218312         0.747507        -1.109548
 C         3.498573         0.637043        -0.260802
 C         2.616890         0.381832         1.028470
 O         2.476545         0.794174         2.289178
 H         3.865157        -2.567832         1.268978
 H         4.773693        -2.266132        -0.225116
 H         5.324218        -1.543342         1.189193
 H        -0.108759         0.939782         0.899203
 H        -0.448179         0.495730        -0.701996
 H        -0.585167        -0.622896         0.480160
 H         2.239311         0.313940        -2.106847
 H         1.534580         1.714987        -1.038891
 H         4.348506         1.379976        -0.207523
 H         2.307649         1.735923         2.383852
