19
Iteration:  2412
 C         4.494120        -1.648340         0.970740
 C         3.303271        -0.871060         0.497017
 O         1.977072        -1.446983         0.445700
 C         1.388360        -0.164419         0.141733
 C        -0.024246         0.323958         0.473884
 C         1.911690         0.189586        -1.305431
 C         3.289919         0.180729        -0.646302
 C         2.755999         0.503296         0.728594
 O         3.018642         1.449547         1.753162
 H         4.450888        -1.707071         2.089465
 H         4.408789        -2.636709         0.576016
 H         5.398855        -1.069831         0.638271
 H        -0.262323         0.356964         1.542130
 H        -0.079891         1.371233         0.161915
 H        -0.809653        -0.148946        -0.058776
 H         1.750311        -0.471880        -2.184874
 H         1.453593         1.154719        -1.435193
 H         4.273485         0.375040        -1.047205
 H         2.826550         1.011872         2.641132
