19
Iteration:  1578charge 0 multiplicity 1
 C         4.455995        -1.610794         0.910600
 C         3.219672        -0.811454         0.549223
 O         1.960177        -1.400372         0.197502
 C         1.459744        -0.094889         0.039448
 C        -0.052221        -0.098083         0.252098
 C         2.169259         0.460488        -1.308308
 C         3.422966         0.462544        -0.511316
 C         2.668181         0.524279         0.844704
 O         2.786235         1.187067         2.155824
 H         4.658856        -1.526758         1.966544
 H         4.165118        -2.628074         0.400057
 H         5.303571        -1.278461         0.273052
 H        -0.255485        -0.795175         1.065162
 H        -0.246626         0.854643         0.789851
 H        -0.675285         0.036033        -0.666027
 H         2.035444        -0.221729        -2.189267
 H         1.531667         1.384111        -1.581406
 H         4.404387         0.846732        -0.861633
 H         3.771256         1.197242         2.273091
