19
Iteration:  4001charge 0 multiplicity 1
 C         4.229735        -1.778491         1.124538
 C         3.311143        -0.805881         0.347854
 O         1.979881        -1.485773         0.031418
 C         1.433551        -0.088453         0.071989
 C         0.019150        -0.171403         0.517211
 C         2.197776         0.656487        -1.421417
 C         3.408251         0.522419        -0.508991
 C         2.720564         0.506040         0.859601
 O         2.854798         1.245424         2.048245
 H         3.705681        -2.741289         1.227742
 H         5.152102        -1.901533         0.574765
 H         4.466726        -1.346827         2.078900
 H        -0.035555         0.323988         1.423149
 H        -0.831511         0.193389        -0.005557
 H        -0.259872        -1.193244         0.880027
 H         1.930451         0.025939        -2.323065
 H         2.026041         1.711433        -1.557589
 H         4.326176         0.998869        -0.827790
 H         3.090727         2.124345         1.788741
