19
Iteration:  4815charge 0 multiplicity 1
 C         4.360850        -1.789382         0.915400
 C         3.310958        -0.824359         0.508890
 O         2.030335        -1.414015        -0.086038
 C         1.433823        -0.060920         0.022697
 C        -0.045804        -0.177759         0.386590
 C         2.153940         0.614160        -1.153117
 C         3.428401         0.500014        -0.322674
 C         2.673249         0.401740         0.965106
 O         2.815975         1.349880         1.921543
 H         4.323310        -2.637261         0.231412
 H         5.375511        -1.478590         0.899715
 H         4.167495        -2.091568         1.961635
 H        -0.775085         0.032547        -0.402106
 H        -0.229429        -1.206499         0.736483
 H        -0.211915         0.665861         1.083637
 H         2.079751         0.231142        -2.193017
 H         2.061222         1.734694        -1.305383
 H         4.346195         1.060488        -0.603192
 H         2.305928         1.198944         2.768310
