19
Iteration:   611charge 0 multiplicity 1
 C         4.370667        -1.591361         0.755624
 C         3.234801        -0.809326         0.459911
 O         2.031071        -1.419972         0.002400
 C         1.481518         0.035014        -0.095702
 C        -0.014904        -0.002296         0.256828
 C         2.317243         0.727866        -1.282721
 C         3.518006         0.634190        -0.319276
 C         2.605178         0.405635         1.009847
 O         2.569434         0.723812         2.321675
 H         4.334757        -2.240858         1.635301
 H         4.709640        -2.148284        -0.165046
 H         5.275976        -1.080250         1.047294
 H        -0.632146        -0.735534        -0.241499
 H         0.066981        -0.276163         1.316145
 H        -0.570022         0.873329         0.072189
 H         2.357009         0.092299        -2.187587
 H         2.073889         1.708840        -1.405994
 H         4.534118         0.901279        -0.517178
 H         2.845957         1.674505         2.284037
