19
Iteration:   763
 C         4.478524        -1.615206         0.870521
 C         3.342042        -0.761391         0.391700
 O         2.081663        -1.490945        -0.010661
 C         1.500322        -0.136814         0.038313
 C         0.030781         0.089669         0.153015
 C         2.104363         0.630550        -1.132465
 C         3.398522         0.691533        -0.336735
 C         2.655478         0.415855         0.924596
 O         2.598520         0.818533         2.255304
 H         4.287978        -2.261316         1.769855
 H         4.888649        -2.475951         0.148538
 H         5.351206        -0.925469         1.151462
 H        -0.269564         1.179499         0.395502
 H        -0.548182        -0.265325        -0.782509
 H        -0.430850        -0.610161         0.957579
 H         2.130947         0.181521        -2.237785
 H         1.643361         1.697207        -1.233367
 H         4.348944         1.127501        -0.725695
 H         2.358425         1.763843         2.172178
