19
Iteration:  1071charge 0 multiplicity 1
 C         4.518203        -1.775244         0.661061
 C         3.347606        -0.786510         0.495356
 O         2.040825        -1.394095         0.142989
 C         1.504126        -0.099485         0.091962
 C        -0.023595        -0.027615         0.123545
 C         2.175390         0.585739        -1.220927
 C         3.416749         0.526748        -0.327211
 C         2.620049         0.427250         1.027215
 O         2.577854         1.134186         2.225793
 H         4.042250        -2.680844         1.023788
 H         4.983018        -2.033935        -0.306751
 H         5.275262        -1.385672         1.386049
 H        -0.374272        -0.504537         1.083795
 H        -0.458772         0.992680        -0.083331
 H        -0.496901        -0.699081        -0.647391
 H         2.301216        -0.037075        -2.121364
 H         1.892979         1.594193        -1.604307
 H         4.438768         1.024223        -0.470461
 H         2.555742         2.114447         2.075683
