19
Iteration:  1870
 C         4.413320        -1.715168         0.860111
 C         3.229330        -0.840665         0.596211
 O         1.931150        -1.477831         0.266790
 C         1.433221        -0.172005         0.021845
 C         0.057816         0.046872         0.577674
 C         2.193904         0.502714        -1.345755
 C         3.430608         0.284488        -0.524569
 C         2.700865         0.537978         0.810634
 O         2.769773         1.378501         1.883565
 H         4.797861        -1.471949         1.848009
 H         4.105461        -2.787191         0.784722
 H         5.115265        -1.477320         0.063927
 H        -0.013973        -0.876290         1.123354
 H         0.086305         0.835160         1.383541
 H        -0.754139         0.021246        -0.215806
 H         1.961200        -0.166263        -2.226454
 H         1.876713         1.508445        -1.588632
 H         4.480311         0.435809        -0.766560
 H         2.384038         2.276519         1.667179
