19
Iteration:  2571charge 0 multiplicity 1
 C         4.480615        -1.511369         0.981535
 C         3.269056        -0.876111         0.504229
 O         1.865146        -1.421649         0.512797
 C         1.384576        -0.154951         0.276834
 C        -0.083180         0.238905         0.446256
 C         1.948233         0.158813        -1.313739
 C         3.283284         0.250129        -0.737459
 C         2.786574         0.480896         0.707331
 O         3.122944         1.419874         1.700095
 H         4.367203        -1.889818         1.993091
 H         4.765106        -2.422808         0.445178
 H         5.280463        -0.815471         0.992232
 H        -0.393816        -0.257572         1.459237
 H        -0.121252         1.347907         0.510219
 H        -0.816568        -0.088499        -0.393031
 H         1.903360        -0.801387        -1.855396
 H         1.537197         0.992306        -1.902581
 H         4.250733         0.471526        -1.135112
 H         3.354466         0.903428         2.529716
