19
Iteration:  1112
 C         4.432899        -1.680386         0.669156
 C         3.257188        -0.760876         0.533010
 O         1.996979        -1.443686         0.051994
 C         1.426571        -0.033119        -0.021748
 C         0.015158        -0.051010         0.330428
 C         2.425362         0.488829        -1.348943
 C         3.432730         0.610620        -0.241059
 C         2.606075         0.468334         0.970159
 O         2.605867         1.044955         2.228738
 H         4.011593        -2.675470         0.882128
 H         4.964045        -1.596031        -0.405521
 H         5.120333        -1.256999         1.487883
 H        -0.116486         0.216228         1.413552
 H        -0.580950         0.665990        -0.266211
 H        -0.455922        -1.020222         0.082736
 H         2.307560        -0.277726        -2.109503
 H         1.907631         1.507891        -1.670748
 H         4.528246         0.802217        -0.213130
 H         2.278267         1.940078         2.055517
