19
Iteration:   145charge 0 multiplicity 1
 C         4.294373        -1.814967         0.774750
 C         3.261318        -0.717943         0.406232
 O         2.048963        -1.249496        -0.103601
 C         1.409895         0.036098         0.005034
 C        -0.100816        -0.092416        -0.071320
 C         2.204113         0.770181        -1.079076
 C         3.473528         0.627420        -0.324721
 C         2.657215         0.470469         1.071099
 O         2.845842         0.813180         2.470561
 H         3.844937        -2.645985         1.394034
 H         4.716213        -2.308482        -0.108729
 H         4.979361        -1.434120         1.466358
 H        -0.588097         0.672179        -0.747847
 H        -0.242073        -1.028075        -0.579447
 H        -0.564801        -0.088736         0.892421
 H         2.208641         0.168581        -1.990368
 H         1.978181         1.765299        -1.375230
 H         4.522422         1.026965        -0.597700
 H         3.198166        -0.042635         2.833389
