19
Iteration:   338charge 0 multiplicity 1
 C         4.335726        -1.730477         0.883215
 C         3.214917        -0.871206         0.369598
 O         2.051342        -1.388855        -0.206407
 C         1.436078         0.038631        -0.082703
 C        -0.085046        -0.096514         0.062473
 C         2.232485         0.987293        -1.041786
 C         3.435851         0.576986        -0.168007
 C         2.593062         0.296360         1.040703
 O         2.845569         0.825216         2.271438
 H         3.847616        -2.370824         1.694709
 H         4.934785        -2.302668         0.118536
 H         4.948793        -1.126954         1.499831
 H        -0.531020         0.888657         0.266077
 H        -0.386649        -0.629987        -0.925131
 H        -0.203801        -0.798821         0.904991
 H         2.278869         0.846271        -2.185290
 H         1.788863         1.939002        -0.860560
 H         4.571591         0.873906        -0.061041
 H         3.206054         1.714148         2.173072
