19
Iteration:  2418charge 0 multiplicity 1
 C         4.448598        -1.626987         0.986796
 C         3.277326        -0.848027         0.542752
 O         1.954795        -1.465155         0.414266
 C         1.395785        -0.178672         0.138371
 C        -0.071422         0.325619         0.502540
 C         1.977260         0.165457        -1.284538
 C         3.309046         0.212572        -0.695434
 C         2.782928         0.509236         0.746181
 O         3.007770         1.444400         1.725751
 H         4.622593        -1.859721         2.061494
 H         4.418008        -2.605265         0.405880
 H         5.384940        -1.177806         0.662023
 H         0.076312         0.316257         1.623726
 H        -0.034103         1.408063         0.289072
 H        -0.890186        -0.334410         0.056960
 H         1.759300        -0.454469        -2.151676
 H         1.632049         1.231214        -1.417575
 H         4.274204         0.399791        -1.183633
 H         2.688807         1.140319         2.599907
