19
Iteration:   651charge 0 multiplicity 1
 C         4.454854        -1.797442         0.791359
 C         3.342358        -0.872767         0.347434
 O         2.148315        -1.416105        -0.152091
 C         1.461371        -0.013140         0.064496
 C         0.003001        -0.022768         0.203688
 C         2.162625         0.726848        -1.068570
 C         3.434076         0.641894        -0.283981
 C         2.659893         0.275188         1.038323
 O         2.497380         1.114321         2.207199
 H         3.910416        -2.491987         1.444983
 H         4.776269        -2.441811        -0.069094
 H         5.187868        -1.225006         1.333871
 H        -0.393561         0.166072        -0.819887
 H        -0.326431        -1.009352         0.589198
 H        -0.317918         0.839702         0.880809
 H         2.087119         0.243841        -2.087781
 H         1.620807         1.785166        -1.140938
 H         4.380946         1.108453        -0.466792
 H         3.285766         1.038160         2.769716
