19
Iteration:  1802
 C         4.377322        -1.658393         1.070105
 C         3.226825        -0.868505         0.503127
 O         1.994559        -1.477935         0.234112
 C         1.457304        -0.123634         0.079919
 C        -0.035810        -0.080442         0.413381
 C         1.946030         0.492253        -1.251269
 C         3.389759         0.425634        -0.581346
 C         2.749844         0.552028         0.756903
 O         2.915457         1.326653         1.911452
 H         5.349364        -1.137283         0.861173
 H         4.274795        -1.859064         2.094115
 H         4.334136        -2.622766         0.501546
 H        -0.337695        -1.101346         0.186337
 H        -0.113790         0.097062         1.461560
 H        -0.529866         0.613782        -0.243042
 H         2.024215        -0.027706        -2.219387
 H         1.653405         1.516835        -1.402839
 H         4.380754         0.894856        -0.889778
 H         3.829024         1.619645         1.863148
