19
Iteration:  1772charge 0 multiplicity 1
 C         4.453666        -1.514775         0.935992
 C         3.243463        -0.857851         0.438317
 O         1.944696        -1.415867         0.253122
 C         1.395658        -0.021370         0.079597
 C        -0.130666        -0.038811         0.385521
 C         2.062286         0.354865        -1.289488
 C         3.442773         0.283275        -0.553616
 C         2.761965         0.502976         0.811113
 O         2.872074         1.286086         2.048200
 H         5.212895        -1.195278         0.300484
 H         4.772410        -1.161656         1.952122
 H         4.233005        -2.547614         1.007695
 H        -0.512790        -0.746244        -0.371262
 H        -0.250511        -0.428512         1.426718
 H        -0.751636         0.864524         0.415837
 H         2.119748        -0.307298        -2.121925
 H         1.827714         1.283001        -1.781762
 H         4.480030         0.643822        -0.827929
 H         3.809035         1.613025         1.925679
