19
Iteration:   598
 C         4.474207        -1.624369         0.820610
 C         3.246418        -0.831319         0.375818
 O         1.984870        -1.412862        -0.083045
 C         1.463481        -0.012952        -0.050786
 C         0.025438         0.049901         0.246683
 C         2.262111         0.740372        -1.177431
 C         3.454836         0.588045        -0.270071
 C         2.646098         0.397717         0.952860
 O         2.629664         0.764736         2.301744
 H         4.196338        -2.222640         1.697548
 H         4.811410        -2.288985        -0.060309
 H         5.232454        -0.884795         1.025211
 H        -0.313773        -0.907034        -0.101699
 H        -0.233117         0.155086         1.301806
 H        -0.457056         0.882649        -0.240497
 H         2.326997         0.115900        -2.106196
 H         1.914925         1.721053        -1.497864
 H         4.468622         0.935749        -0.310046
 H         2.110752         1.599890         2.453822
