19
Iteration:  1360
 C         4.406518        -1.777103         1.021645
 C         3.374537        -0.778960         0.406131
 O         2.086150        -1.425119        -0.017945
 C         1.472464        -0.076759         0.023784
 C         0.008133        -0.078455         0.272785
 C         2.076796         0.581960        -1.167701
 C         3.388371         0.583936        -0.455427
 C         2.700904         0.444929         0.907235
 O         2.701882         1.129418         2.098843
 H         4.291580        -2.726969         0.484980
 H         5.424232        -1.273145         1.162275
 H         4.030155        -1.911372         2.073280
 H        -0.263621        -1.147559         0.599697
 H        -0.227262         0.435278         1.255212
 H        -0.661141         0.136906        -0.648639
 H         1.853561         0.046245        -2.101176
 H         1.642659         1.607191        -1.056600
 H         4.295498         1.143120        -0.611910
 H         2.644135         2.062947         1.872083
