19
Iteration:  1783
 C         4.449054        -1.550055         0.981623
 C         3.246280        -0.820011         0.438319
 O         1.895353        -1.361466         0.324418
 C         1.416965        -0.047671         0.048988
 C        -0.076392        -0.083246         0.413282
 C         2.108180         0.428756        -1.352724
 C         3.413769         0.369030        -0.538246
 C         2.678809         0.456587         0.868351
 O         2.905748         1.236023         1.922397
 H         5.324259        -1.323397         0.453342
 H         4.551511        -1.364507         2.071958
 H         4.460409        -2.599567         0.810699
 H        -0.386151        -0.996886        -0.107287
 H        -0.126508        -0.421777         1.473983
 H        -0.695625         0.730014         0.050673
 H         1.819923        -0.296859        -2.078099
 H         1.896763         1.472457        -1.551329
 H         4.434614         0.640070        -0.922713
 H         3.819797         1.572170         1.968124
