19
Iteration:  4166charge 0 multiplicity 1
 C         4.332049        -1.809874         1.207821
 C         3.303411        -0.893940         0.305367
 O         2.054355        -1.493518        -0.059997
 C         1.443029        -0.096350         0.072317
 C        -0.019046        -0.069536         0.605807
 C         2.100583         0.578917        -1.190404
 C         3.389749         0.429293        -0.525389
 C         2.717063         0.502367         0.820733
 O         2.827815         1.381049         1.872337
 H         5.198327        -2.240144         0.836517
 H         4.622248        -1.290622         2.194260
 H         3.780832        -2.639746         1.584381
 H        -0.312181        -1.103626         0.974473
 H        -0.148682         0.768943         1.307089
 H        -0.735220         0.218981        -0.276986
 H         1.910295         0.197749        -2.213348
 H         1.798397         1.602904        -1.107317
 H         4.424646         0.740846        -0.894028
 H         2.913943         2.291206         1.457612
