19
Iteration:   765charge 0 multiplicity 1
 C         4.493819        -1.598536         0.878803
 C         3.339483        -0.784833         0.375411
 O         2.074043        -1.489982        -0.023476
 C         1.514136        -0.124340         0.042477
 C         0.024288         0.092882         0.155362
 C         2.103154         0.619993        -1.124666
 C         3.395350         0.692239        -0.349142
 C         2.650870         0.402676         0.946859
 O         2.591039         0.822901         2.247485
 H         4.297132        -2.247881         1.809479
 H         4.860807        -2.475094         0.158474
 H         5.367161        -0.884437         1.173935
 H        -0.267789         1.156458         0.453591
 H        -0.552461        -0.225286        -0.773792
 H        -0.439865        -0.605512         0.903104
 H         2.101666         0.181739        -2.250194
 H         1.735564         1.684762        -1.191756
 H         4.322649         1.133875        -0.684978
 H         2.443866         1.776291         2.152872
