19
Iteration:   552
 C         4.390106        -1.799873         0.873354
 C         3.318237        -0.859265         0.371700
 O         2.136203        -1.465396        -0.187069
 C         1.426165        -0.081692        -0.012604
 C        -0.035670        -0.016233         0.164054
 C         2.165057         0.877777        -1.041449
 C         3.413336         0.635402        -0.249138
 C         2.625430         0.316096         0.994403
 O         2.707698         1.016556         2.177224
 H         3.855551        -2.400783         1.651921
 H         4.810138        -2.398712        -0.018874
 H         5.165941        -1.103568         1.346135
 H        -0.406039        -0.825997         0.823829
 H        -0.227682         0.982876         0.546582
 H        -0.502471         0.051034        -0.870222
 H         1.982123         0.953661        -2.112699
 H         1.823344         1.940477        -0.652462
 H         4.427195         1.142407        -0.277908
 H         2.705114         0.404598         2.938571
