19
Iteration:  3597charge 0 multiplicity 1
 C         4.360721        -1.638301         0.883091
 C         3.242716        -0.784802         0.455691
 O         2.018602        -1.497121         0.079762
 C         1.449285        -0.099605         0.030531
 C        -0.033461         0.194852         0.491684
 C         2.156350         0.448038        -1.286339
 C         3.462058         0.428803        -0.473977
 C         2.640587         0.467122         0.845017
 O         2.806847         1.053323         2.053395
 H         4.740039        -0.997445         1.714350
 H         3.993683        -2.526470         1.382054
 H         5.197266        -1.910769         0.233290
 H        -0.048447        -0.033979         1.554998
 H        -0.348510         1.274164         0.331861
 H        -0.888460        -0.471728         0.108157
 H         2.227132        -0.156939        -2.215420
 H         1.941775         1.495974        -1.462028
 H         4.478389         0.621147        -0.689827
 H         2.924044         2.040577         1.990004
