19
Iteration:  1532
 C         4.438813        -1.807876         1.011843
 C         3.325403        -0.807618         0.436364
 O         2.092062        -1.488257         0.028992
 C         1.495675        -0.213865        -0.001774
 C         0.056082         0.054927         0.455909
 C         2.027515         0.572325        -1.163339
 C         3.434833         0.553986        -0.491653
 C         2.686073         0.434757         0.895605
 O         2.569940         1.239081         1.975076
 H         4.780686        -1.513498         2.006594
 H         4.117933        -2.866341         0.988498
 H         5.334470        -1.771303         0.346738
 H        -0.050202         0.109453         1.522983
 H        -0.234770         0.944658        -0.064758
 H        -0.530342        -0.684888        -0.068701
 H         1.823623         0.166800        -2.195178
 H         1.728626         1.630126        -1.212879
 H         4.344228         1.041434        -0.745596
 H         3.279084         1.923172         2.068312
