19
Iteration:  1967
 C         4.405776        -1.611454         1.099014
 C         3.198601        -0.891380         0.503785
 O         1.820774        -1.384427         0.110284
 C         1.373307         0.063644         0.054221
 C        -0.072408        -0.159619         0.473528
 C         2.066428         0.467569        -1.231540
 C         3.370582         0.239625        -0.593249
 C         2.778253         0.488428         0.841340
 O         3.145177         1.279710         1.888075
 H         4.302245        -2.710212         1.265331
 H         5.270359        -1.304092         0.450229
 H         4.378745        -1.002769         2.051735
 H        -0.217328         0.217967         1.425687
 H        -0.689804         0.565163        -0.048557
 H        -0.330980        -1.192458         0.394359
 H         1.990081        -0.262421        -2.110989
 H         1.933994         1.463923        -1.627512
 H         4.184053         0.912697        -0.807492
 H         3.044698         2.260715         1.694465
