19
Iteration:   117
 C         4.322107        -1.696367         0.741650
 C         3.128208        -0.921162         0.429020
 O         1.992505        -1.389568        -0.077066
 C         1.451442         0.005013        -0.095109
 C        -0.112305        -0.022471         0.027852
 C         2.316758         0.833561        -1.080239
 C         3.510925         0.654872        -0.169262
 C         2.630451         0.347847         1.004397
 O         2.870150         0.869688         2.308415
 H         4.245650        -2.476618         1.489816
 H         4.853700        -2.081711        -0.146896
 H         4.992395        -0.838955         1.198545
 H        -0.426412         0.982611        -0.315049
 H        -0.480531        -0.854242        -0.635145
 H        -0.302834        -0.252181         1.132427
 H         2.352051         0.494046        -2.205568
 H         1.911654         1.958000        -1.068851
 H         4.467184         1.119170         0.064064
 H         2.378941         0.285386         2.916810
