19
Iteration:  1339charge 0 multiplicity 1
 C         4.277123        -1.800134         0.953897
 C         3.396107        -0.726376         0.389872
 O         2.244494        -1.410055         0.041112
 C         1.493928        -0.094117         0.127152
 C         0.028877        -0.149445         0.354216
 C         2.062005         0.651482        -1.226036
 C         3.475970         0.504134        -0.566075
 C         2.721213         0.517897         0.881225
 O         2.500375         1.128204         2.138846
 H         3.724698        -2.694249         0.641200
 H         5.416786        -1.819248         0.638527
 H         4.365873        -1.812492         2.084382
 H        -0.548262        -1.108603         0.633502
 H        -0.124690         0.529888         1.268137
 H        -0.281165         0.291229        -0.683640
 H         1.848783         0.078585        -2.115539
 H         1.693743         1.718946        -1.190760
 H         4.444007         0.877109        -0.871603
 H         2.847459         2.045251         2.175094
