19
Iteration:  4315charge 0 multiplicity 1
 C         4.304004        -1.759790         1.149515
 C         3.264695        -0.882783         0.485922
 O         2.056985        -1.430946        -0.026233
 C         1.507455        -0.076000         0.021234
 C         0.031508        -0.138568         0.524435
 C         2.052949         0.578309        -1.285983
 C         3.347663         0.434184        -0.528290
 C         2.715693         0.475531         0.836028
 O         2.777648         1.364637         1.931652
 H         4.151205        -2.920728         1.064929
 H         5.374824        -1.543361         0.895189
 H         4.335656        -1.354716         2.185353
 H        -0.753983        -0.395401        -0.119797
 H         0.061867        -0.891711         1.273062
 H        -0.086352         0.813818         1.104171
 H         1.874949        -0.140719        -2.154004
 H         1.832537         1.669343        -1.617561
 H         4.380157         0.731639        -0.943126
 H         3.547179         1.964694         1.809826
