19
Iteration:  1598
 C         4.472080        -1.539133         0.881922
 C         3.240932        -0.828993         0.516594
 O         1.912413        -1.472477         0.267575
 C         1.363724        -0.041458         0.000125
 C        -0.065548        -0.060271         0.236127
 C         2.142735         0.531876        -1.241571
 C         3.420669         0.384887        -0.428174
 C         2.692641         0.421107         0.883540
 O         2.841800         1.239111         1.997525
 H         4.419444        -1.563848         1.964310
 H         4.734850        -2.447337         0.251596
 H         5.290595        -0.812865         0.695304
 H        -0.180422        -1.074607         0.606568
 H        -0.545800         0.451587         1.044897
 H        -0.693223         0.115283        -0.656812
 H         1.981447         0.022341        -2.220326
 H         2.308152         1.607852        -1.474532
 H         4.484162         0.516264        -0.568860
 H         3.679823         0.944279         2.368401
