19
Iteration:  2916charge 0 multiplicity 1
 C         4.480488        -1.599262         0.973994
 C         3.145974        -0.863220         0.656381
 O         1.881891        -1.457604         0.459798
 C         1.380945        -0.048021         0.145197
 C        -0.069840         0.075202         0.474861
 C         1.968120         0.151323        -1.295028
 C         3.295207         0.196728        -0.660903
 C         2.788365         0.528278         0.738073
 O         3.149872         1.595305         1.634234
 H         5.048428        -1.062907         1.704844
 H         4.316992        -2.547203         1.365399
 H         5.100028        -1.790943         0.125606
 H        -0.224778        -0.029784         1.583040
 H        -0.368240         1.052593         0.036438
 H        -0.627784        -0.728660        -0.062500
 H         1.807373        -0.670682        -1.967322
 H         1.640392         1.134264        -1.661594
 H         4.317457         0.462042        -1.041994
 H         3.375867         1.138147         2.451344
