19
Iteration:  1526charge 0 multiplicity 1
 C         4.454493        -1.776004         1.003963
 C         3.301988        -0.868271         0.483753
 O         2.099011        -1.518806         0.020072
 C         1.459268        -0.147971        -0.046586
 C         0.081055         0.021504         0.471540
 C         2.088433         0.614864        -1.183090
 C         3.423496         0.489205        -0.424512
 C         2.700189         0.478845         0.826429
 O         2.566679         1.240552         1.971186
 H         4.776854        -1.437201         1.992028
 H         4.033700        -2.821645         0.942764
 H         5.215920        -1.695439         0.224347
 H        -0.004198         0.138802         1.581825
 H        -0.454039         0.940992         0.059203
 H        -0.637535        -0.811358         0.170993
 H         1.933365         0.310801        -2.214544
 H         1.611913         1.612882        -0.952647
 H         4.385750         0.873717        -0.859855
 H         3.142465         2.025350         2.041736
