19
Iteration:  1246charge 0 multiplicity 1
 C         4.474211        -1.712848         0.872417
 C         3.333162        -0.835371         0.464689
 O         2.081172        -1.437504         0.146883
 C         1.467238        -0.030013         0.025188
 C        -0.044596        -0.060722         0.117091
 C         2.068134         0.650666        -1.145062
 C         3.357575         0.651052        -0.413484
 C         2.714724         0.417303         0.922317
 O         2.712191         0.980996         2.169028
 H         4.578900        -2.057150         1.932746
 H         4.541507        -2.601624         0.272192
 H         5.493000        -1.359550         0.660636
 H        -0.558102        -0.417502         0.987752
 H        -0.309924         0.984595        -0.077721
 H        -0.271307        -0.625738        -0.795026
 H         2.005240         0.196419        -2.169516
 H         1.624927         1.652714        -1.066235
 H         4.281382         1.175369        -0.558798
 H         2.242031         1.826574         2.082394
