19
Iteration:  2014charge 0 multiplicity 1
 C         4.280146        -1.819316         1.095342
 C         3.319558        -0.824723         0.417639
 O         2.013399        -1.432093         0.293118
 C         1.426841        -0.202261         0.046948
 C         0.009166         0.039178         0.471036
 C         1.948368         0.342744        -1.259321
 C         3.399525         0.491846        -0.658194
 C         2.739721         0.507772         0.791030
 O         3.003355         1.395461         1.908349
 H         4.593486        -2.485379         0.266904
 H         5.309696        -1.366062         1.409850
 H         3.680743        -2.396393         1.839859
 H        -0.100455         0.027924         1.603453
 H        -0.313805         1.103447         0.270395
 H        -0.718609        -0.706298         0.059464
 H         1.566559        -0.263208        -2.125841
 H         1.502434         1.372369        -1.420334
 H         4.259609         1.087012        -1.007850
 H         3.246782         2.228095         1.458416
