19
Iteration:  3987
 C         4.224551        -1.772426         1.161990
 C         3.281291        -0.890107         0.388431
 O         2.049674        -1.353312        -0.056258
 C         1.452250        -0.100422         0.015884
 C         0.027911        -0.172601         0.675699
 C         2.131776         0.673502        -1.279628
 C         3.458504         0.502136        -0.542649
 C         2.709655         0.446591         0.780423
 O         2.780858         1.224121         1.945767
 H         3.600977        -2.667520         1.487854
 H         5.090700        -2.096407         0.693588
 H         4.531251        -1.255911         2.077447
 H        -0.084194         0.499538         1.576159
 H        -0.618469         0.227084        -0.192821
 H        -0.176925        -1.310439         0.770620
 H         2.215546         0.152182        -2.229293
 H         1.794239         1.712260        -1.459272
 H         4.552302         0.887639        -0.627262
 H         3.139264         2.117793         1.685870
