19
Iteration:  4738charge 0 multiplicity 1
 C         4.485212        -1.483475         0.875232
 C         3.276854        -0.759685         0.419723
 O         2.021546        -1.468625         0.147257
 C         1.421711        -0.083393         0.008472
 C        -0.051012         0.144388         0.251935
 C         2.142811         0.479288        -1.230912
 C         3.466624         0.387719        -0.574126
 C         2.624965         0.447211         0.920619
 O         2.716158         1.016330         2.230325
 H         4.400630        -2.313849         0.115930
 H         5.405259        -0.975466         0.897129
 H         4.426199        -1.793460         1.942447
 H        -0.606534        -0.340862        -0.540092
 H        -0.432532        -0.096685         1.333332
 H        -0.179978         1.240220         0.264393
 H         2.170605        -0.346537        -1.999131
 H         1.664562         1.482852        -1.588577
 H         4.486358         0.819542        -0.891631
 H         3.215711         0.411987         2.807804
