19
Iteration:  3435charge 0 multiplicity 1
 C         4.348209        -1.878960         0.969617
 C         3.250327        -0.857395         0.465987
 O         1.972532        -1.473297         0.142583
 C         1.451834        -0.117939         0.095717
 C        -0.071637         0.000207         0.407411
 C         2.079433         0.491069        -1.150964
 C         3.425151         0.296842        -0.451885
 C         2.752964         0.462246         0.881655
 O         2.908978         1.574814         1.836630
 H         3.912287        -2.894382         0.858905
 H         5.334522        -1.778424         0.536273
 H         4.437227        -1.729935         2.087594
 H        -0.321087         0.918899        -0.024971
 H        -0.497606        -0.818245        -0.131088
 H        -0.349307        -0.129063         1.486757
 H         2.061947        -0.160632        -2.051184
 H         1.751637         1.518451        -1.198632
 H         4.392954         0.753465        -0.717889
 H         3.104645         2.386811         1.306036
