19
Iteration:  2264
 C         4.439005        -1.774760         0.888347
 C         3.218857        -0.895406         0.493519
 O         1.819725        -1.487296         0.424631
 C         1.420745         0.024497         0.111862
 C         0.042685         0.261825         0.668673
 C         2.065966         0.171128        -1.350730
 C         3.479045         0.257955        -0.585006
 C         2.803413         0.483769         0.755566
 O         2.915672         1.500419         1.733396
 H         3.986165        -2.614027         1.475137
 H         4.845398        -2.002529        -0.168357
 H         5.034930        -1.017644         1.415690
 H         0.384425         0.453807         1.724603
 H        -0.614212         1.064673         0.297920
 H        -0.470183        -0.698833         0.608373
 H         1.816415        -0.696306        -2.012061
 H         1.780521         1.130818        -1.868964
 H         4.449130         0.194425        -1.024151
 H         2.152285         2.071574         1.669151
