19
Iteration:  3906charge 0 multiplicity 1
 C         4.457114        -1.638901         0.729441
 C         3.250154        -0.813035         0.525398
 O         2.002537        -1.371755         0.245277
 C         1.489341        -0.078822         0.063411
 C        -0.053922         0.062225         0.127614
 C         2.097855         0.374705        -1.299577
 C         3.399531         0.441690        -0.418172
 C         2.689471         0.520298         0.952546
 O         2.799799         1.090501         2.237134
 H         4.625512        -1.910200         1.761148
 H         4.266375        -2.566571         0.063384
 H         5.294077        -1.084283         0.271324
 H        -0.352007         1.069636         0.627868
 H        -0.479742         0.012864        -0.895215
 H        -0.441400        -0.703354         0.802456
 H         2.009121        -0.321415        -2.163889
 H         2.021223         1.424399        -1.577805
 H         4.418211         0.546873        -0.647631
 H         2.611272         2.049406         2.320186
