19
Iteration:  4414charge 0 multiplicity 1
 C         4.528026        -1.548273         0.751123
 C         3.235018        -0.898312         0.597684
 O         1.929572        -1.568246         0.308207
 C         1.400406        -0.220496         0.093100
 C        -0.067665         0.177356         0.255637
 C         2.144292         0.357800        -1.296729
 C         3.290554         0.460162        -0.430013
 C         2.683866         0.456935         0.898271
 O         2.957730         1.327116         1.975849
 H         5.182910        -1.704977        -0.138467
 H         5.200001        -0.907877         1.351061
 H         4.369302        -2.374276         1.426472
 H        -0.647369        -0.201510        -0.555948
 H        -0.433809        -0.343884         1.085930
 H        -0.109066         1.314882         0.237770
 H         2.263851        -0.207731        -2.268629
 H         1.723641         1.346603        -1.618080
 H         4.305755         0.740944        -0.591411
 H         2.139660         1.207169         2.536544
