19
Iteration:  1297
 C         4.499857        -1.630092         0.819510
 C         3.245000        -0.878168         0.557094
 O         2.030473        -1.457151        -0.114092
 C         1.484600        -0.098125        -0.017818
 C        -0.026135        -0.023870         0.411623
 C         2.266955         0.575809        -1.241616
 C         3.425574         0.510484        -0.272079
 C         2.577759         0.364431         0.954932
 O         2.553104         1.202917         2.075241
 H         4.531635        -2.594820         1.266405
 H         5.212116        -1.963249        -0.040206
 H         5.134195        -0.974622         1.465064
 H        -0.099619        -1.010700         0.924576
 H        -0.181961         0.735227         1.209307
 H        -0.726339         0.240348        -0.419805
 H         2.259775        -0.075233        -2.078405
 H         1.929006         1.605271        -1.609157
 H         4.404116         0.866674        -0.152053
 H         3.265465         1.827855         1.943001
