19
Iteration:  4758
 C         4.542462        -1.575426         0.862403
 C         3.272038        -0.833156         0.426116
 O         2.013090        -1.481458         0.292074
 C         1.451449        -0.031629         0.077473
 C        -0.026104         0.191426         0.138908
 C         2.047162         0.441379        -1.320659
 C         3.373740         0.549199        -0.408172
 C         2.709465         0.469975         0.877161
 O         2.701376         0.975164         2.135302
 H         4.597238        -2.542473         0.288122
 H         5.205931        -0.840996         0.495799
 H         4.878396        -1.610377         1.964554
 H        -0.398681        -0.029918        -0.884548
 H        -0.530799        -0.481683         1.028289
 H        -0.318836         1.093344         0.616456
 H         2.074306        -0.221085        -2.204508
 H         1.794433         1.548787        -1.436054
 H         4.431961         0.841045        -0.638636
 H         3.148890         0.238395         2.532805
