19
Iteration:  1672charge 0 multiplicity 1
 C         4.395949        -1.727535         0.991408
 C         3.235925        -0.811583         0.462159
 O         1.968913        -1.432484         0.142076
 C         1.445197        -0.000690         0.039854
 C         0.031678        -0.144871         0.562636
 C         2.198983         0.437421        -1.330390
 C         3.462876         0.443558        -0.534338
 C         2.738068         0.561340         0.807035
 O         2.777034         1.361933         1.924694
 H         3.915584        -2.731851         0.960614
 H         5.281126        -1.704436         0.422993
 H         4.573148        -1.591451         2.045183
 H        -0.686794        -0.731865        -0.060752
 H         0.058727        -0.751905         1.455279
 H        -0.554432         0.715645         0.888709
 H         2.064486        -0.313033        -2.099538
 H         1.695440         1.345201        -1.587286
 H         4.489773         0.626906        -0.870920
 H         1.896111         1.626536         2.219383
