19
Iteration:  4207charge 0 multiplicity 1
 C         4.498790        -1.623358         0.968572
 C         3.243034        -0.871960         0.500535
 O         1.914740        -1.430316         0.229600
 C         1.408933        -0.101353        -0.019777
 C         0.009566         0.027289         0.362852
 C         2.098721         0.416008        -1.299324
 C         3.369864         0.410965        -0.439202
 C         2.671384         0.514001         0.821432
 O         2.857289         1.206525         2.045904
 H         4.854167        -2.140674         0.010458
 H         5.299004        -0.947580         1.209650
 H         4.204311        -2.436174         1.626068
 H        -0.492462        -0.907573         0.533114
 H        -0.072291         0.709724         1.186718
 H        -0.561963         0.456005        -0.538875
 H         2.208172        -0.236240        -2.177281
 H         1.810884         1.419287        -1.571874
 H         4.305066         0.759574        -0.920276
 H         3.247396         2.079587         1.933311
