19
Iteration:  1355charge 0 multiplicity 1
 C         4.387897        -1.795208         1.030860
 C         3.412233        -0.763973         0.404214
 O         2.113184        -1.397327        -0.013517
 C         1.523681        -0.101158         0.012930
 C         0.017361        -0.072175         0.284577
 C         2.024072         0.562959        -1.125085
 C         3.405755         0.559937        -0.474766
 C         2.701584         0.479917         0.904167
 O         2.649191         1.121048         2.110245
 H         4.157542        -2.740851         0.507205
 H         5.377911        -1.433890         0.956730
 H         4.002442        -1.894176         2.023723
 H        -0.201584        -1.085280         0.475002
 H        -0.320799         0.471121         1.135864
 H        -0.635200         0.132678        -0.493732
 H         1.795885         0.113041        -2.118572
 H         1.742043         1.610441        -1.087383
 H         4.293334         1.149014        -0.850523
 H         2.690946         2.090794         1.890645
