19
Iteration:  2439charge 0 multiplicity 1
 C         4.360163        -1.687207         0.951665
 C         3.186618        -0.928976         0.545159
 O         1.895739        -1.476350         0.368938
 C         1.421348        -0.015200         0.090847
 C         0.093564         0.166519         0.729037
 C         2.061061         0.208502        -1.363718
 C         3.400107         0.235288        -0.559422
 C         2.739468         0.520318         0.675009
 O         2.980019         1.534168         1.627165
 H         4.213803        -2.014955         1.974474
 H         4.505614        -2.578297         0.276349
 H         5.202766        -1.031145         0.991136
 H         0.171603         0.270476         1.881167
 H        -0.358170         1.169699         0.452934
 H        -0.503585        -0.699946         0.241505
 H         1.975741        -0.685337        -1.977351
 H         1.598920         1.133601        -1.800544
 H         4.434422         0.544816        -0.790161
 H         2.367022         1.422268         2.409245
