19
Iteration:   436
 C         4.517219        -1.664309         0.723013
 C         3.262613        -0.913249         0.375827
 O         2.120751        -1.393664        -0.292218
 C         1.481137        -0.019939        -0.009148
 C        -0.036021         0.198767         0.284379
 C         2.266559         0.787573        -1.021951
 C         3.484731         0.446862        -0.286478
 C         2.540076         0.190896         1.100034
 O         2.442184         0.906810         2.305873
 H         4.473856        -2.303962         1.636029
 H         4.819674        -2.193158        -0.196237
 H         5.266658        -0.977749         0.886691
 H        -0.135472         1.273881         0.186682
 H        -0.590456        -0.499800        -0.390451
 H        -0.261774        -0.109873         1.279874
 H         2.243610         0.536377        -2.201315
 H         1.972452         1.815859        -0.949024
 H         4.554214         0.864543        -0.328870
 H         3.204408         1.486801         2.299694
