19
Iteration:  2880charge 0 multiplicity 1
 C         4.451036        -1.744295         0.862243
 C         3.295209        -0.873892         0.502482
 O         2.018197        -1.516747         0.565603
 C         1.367872        -0.078640         0.271811
 C        -0.150145         0.171524         0.452987
 C         1.994890         0.154576        -1.255704
 C         3.374610         0.245092        -0.666483
 C         2.826943         0.542428         0.789882
 O         3.012951         1.589268         1.698207
 H         5.365640        -1.249934         1.268955
 H         4.002352        -2.295172         1.750536
 H         4.708476        -2.320585        -0.061403
 H        -0.561741         0.632490         1.354663
 H        -0.423502         0.983744        -0.313728
 H        -0.769902        -0.735161         0.171009
 H         1.969011        -0.510021        -2.146761
 H         1.562065         1.065962        -1.695693
 H         4.290135         0.616699        -1.226969
 H         2.213454         2.092246         1.635681
