19
Iteration:  2808
 C         4.388058        -1.628792         1.261630
 C         3.268799        -0.892088         0.471821
 O         1.935441        -1.453240         0.225549
 C         1.470567        -0.087739         0.097090
 C         0.110340         0.059490         0.786476
 C         1.943093         0.276494        -1.316945
 C         3.321194         0.235200        -0.690358
 C         2.776896         0.485632         0.674898
 O         2.870815         1.531929         1.584727
 H         5.347242        -1.602232         0.736438
 H         4.540157        -1.259675         2.281037
 H         4.109650        -2.668291         1.138888
 H         0.028679        -0.254452         1.835384
 H        -0.273744         1.077896         0.737504
 H        -0.603142        -0.458520         0.156251
 H         1.602238        -0.311876        -2.155562
 H         1.776792         1.337966        -1.614204
 H         4.308533         0.616734        -1.130176
 H         3.676942         1.330608         2.048589
