19
Iteration:  2041charge 0 multiplicity 1
 C         4.432229        -1.710554         0.915648
 C         3.210837        -0.878789         0.484099
 O         1.989427        -1.454553         0.289668
 C         1.449022        -0.062580         0.168545
 C        -0.002819         0.190910         0.535810
 C         2.042524         0.270100        -1.265907
 C         3.397469         0.293618        -0.589501
 C         2.747130         0.475851         0.802454
 O         2.861414         1.399953         1.862137
 H         5.041156        -1.913705         0.011900
 H         5.043438        -1.317332         1.659933
 H         3.916933        -2.632938         1.122283
 H        -0.420794        -0.280545         1.440514
 H        -0.063566         1.266104         0.693111
 H        -0.603834        -0.109359        -0.339897
 H         1.802708        -0.635402        -1.816339
 H         1.772531         1.135223        -1.831891
 H         4.362350         0.591285        -0.991083
 H         2.985149         2.267198         1.446376
