19
Iteration:  3339charge 0 multiplicity 1
 C         4.451021        -1.490338         1.234502
 C         3.240834        -0.943396         0.378985
 O         1.920690        -1.519150         0.266575
 C         1.406972        -0.175534         0.042476
 C        -0.028573         0.251141         0.464588
 C         2.007043         0.393504        -1.302189
 C         3.367901         0.210166        -0.650739
 C         2.700096         0.396413         0.785816
 O         3.012662         1.307373         1.861373
 H         5.441703        -1.526415         0.720557
 H         4.444557        -0.951431         2.206752
 H         4.271922        -2.566914         1.551823
 H         0.010688         0.641017         1.576442
 H        -0.384295         1.020479        -0.251480
 H        -0.844264        -0.609256         0.389715
 H         1.866611        -0.279271        -2.180106
 H         1.902854         1.485825        -1.517216
 H         4.322294         0.647273        -1.086395
 H         3.056456         2.248666         1.527803
