19
Iteration:  2893charge 0 multiplicity 1
 C         4.466545        -1.695847         0.863557
 C         3.305216        -0.805288         0.499135
 O         1.939171        -1.459640         0.633476
 C         1.413259        -0.188148         0.218487
 C        -0.049132         0.165782         0.372860
 C         1.959067         0.194709        -1.260349
 C         3.282056         0.239257        -0.596917
 C         2.705231         0.531937         0.757951
 O         3.108912         1.543161         1.633970
 H         5.192486        -1.159868         1.447717
 H         4.093208        -2.488750         1.448318
 H         4.972348        -2.213535         0.046841
 H        -0.331613         0.416978         1.417138
 H        -0.241548         0.955824        -0.413022
 H        -0.682518        -0.725113         0.086625
 H         1.693417        -0.601069        -1.920712
 H         1.644493         1.209857        -1.526998
 H         4.349102         0.561355        -0.893059
 H         2.329274         1.844829         2.207047
