19
Iteration:  3315charge 0 multiplicity 1
 C         4.239778        -1.621739         1.200250
 C         3.125732        -0.834831         0.563375
 O         1.916867        -1.454166         0.236390
 C         1.446006        -0.024950         0.052198
 C         0.019830        -0.028574         0.553286
 C         2.070459         0.340448        -1.292879
 C         3.463281         0.267323        -0.626915
 C         2.720601         0.518754         0.733567
 O         3.061000         1.367146         1.714009
 H         5.228951        -1.317283         0.731098
 H         4.247940        -1.429917         2.302236
 H         4.193847        -2.755742         1.114398
 H         0.026874        -0.251860         1.668571
 H        -0.456980         0.988352         0.368933
 H        -0.679810        -0.764700        -0.044492
 H         1.952916        -0.302398        -2.215139
 H         1.770013         1.407954        -1.425515
 H         4.501896         0.634686        -0.849077
 H         3.306552         2.224750         1.371113
