19
Iteration:  3028
 C         4.386395        -1.662063         1.033433
 C         3.183641        -0.915145         0.606303
 O         1.874651        -1.463588         0.409847
 C         1.412953        -0.057591         0.043331
 C         0.077085         0.136844         0.588380
 C         2.040453         0.148463        -1.329465
 C         3.398720         0.136995        -0.612698
 C         2.783512         0.525672         0.731276
 O         2.929912         1.659876         1.621788
 H         5.139973        -0.911947         1.040764
 H         4.331456        -2.282192         1.941132
 H         4.650159        -2.303280         0.216993
 H         0.099206        -0.002346         1.718416
 H        -0.080532         1.246446         0.574150
 H        -0.787804        -0.364237         0.142008
 H         2.162901        -0.582977        -2.152139
 H         1.819329         1.141971        -1.724309
 H         4.376157         0.311179        -1.122557
 H         2.783945         1.297773         2.555793
