19
Iteration:  1792
 C         4.443522        -1.612109         1.019676
 C         3.255606        -0.808752         0.493303
 O         1.891409        -1.430277         0.296593
 C         1.401314        -0.004309         0.066811
 C         0.016255        -0.166037         0.404458
 C         2.102733         0.463578        -1.294998
 C         3.325271         0.410873        -0.552311
 C         2.714786         0.506368         0.770018
 O         2.915346         1.249777         1.895745
 H         5.418993        -1.205501         0.728331
 H         4.431210        -1.611066         2.069496
 H         4.319210        -2.648644         0.730926
 H        -0.513185        -1.011953         0.037597
 H        -0.239134         0.042050         1.409203
 H        -0.482435         0.701920         0.018784
 H         1.875686        -0.112568        -2.189517
 H         1.704985         1.443052        -1.408625
 H         4.382688         0.700300        -0.836207
 H         3.839296         1.556449         1.909702
