19
Iteration:  4957charge 0 multiplicity 1
 C         4.469117        -1.572998         0.959760
 C         3.283196        -0.818393         0.378068
 O         1.995001        -1.459321         0.115268
 C         1.440046        -0.078446         0.097069
 C        -0.094310         0.092277         0.260127
 C         2.097055         0.526291        -1.222384
 C         3.392733         0.464445        -0.509799
 C         2.707159         0.466230         0.834053
 O         2.805325         1.040215         2.169668
 H         4.799291        -2.289918         0.181820
 H         5.350432        -0.958568         1.173733
 H         4.126941        -2.154687         1.804303
 H        -0.671969        -0.665445        -0.322783
 H        -0.390548         0.109819         1.287732
 H        -0.379837         1.059124        -0.314850
 H         2.120214         0.033911        -2.180229
 H         1.662657         1.540152        -1.369651
 H         4.328474         0.989218        -0.646328
 H         3.470565         0.524674         2.697632
