19
Iteration:  2465charge 0 multiplicity 1
 C         4.278328        -1.854016         1.035250
 C         3.282388        -0.913403         0.505074
 O         1.921141        -1.440773         0.298503
 C         1.410131        -0.023311         0.054580
 C         0.051785         0.007026         0.806714
 C         2.043361         0.301623        -1.277863
 C         3.434578         0.189059        -0.621675
 C         2.781482         0.530352         0.746731
 O         2.939449         1.737349         1.531308
 H         3.712718        -2.540980         1.773333
 H         4.691767        -2.445317         0.212260
 H         5.113746        -1.353973         1.651972
 H         0.291343         0.069602         1.843209
 H        -0.405063         0.956796         0.560788
 H        -0.505256        -0.862194         0.489304
 H         1.793839        -0.466682        -2.034687
 H         1.950443         1.314166        -1.660834
 H         4.268051         0.591019        -1.188889
 H         2.702292         1.599823         2.504206
