19
Iteration:  4156charge 0 multiplicity 1
 C         4.279376        -1.871497         1.197138
 C         3.382111        -0.866922         0.431500
 O         2.020449        -1.430867        -0.036167
 C         1.489691        -0.157603         0.072644
 C         0.054749        -0.065958         0.546483
 C         1.981745         0.612555        -1.242538
 C         3.446773         0.442006        -0.546078
 C         2.707801         0.427170         0.814812
 O         2.837617         1.386344         1.854502
 H         5.204268        -2.135384         0.830486
 H         4.451601        -1.099663         2.042926
 H         3.583729        -2.639865         1.449694
 H        -0.167792        -1.037112         1.138137
 H        -0.014685         0.639508         1.385844
 H        -0.774861         0.003565        -0.203539
 H         1.692595         0.225244        -2.255209
 H         1.741694         1.681919        -1.164983
 H         4.471608         0.964249        -0.674804
 H         2.748505         2.308847         1.484571
