19
Iteration:  3313charge 0 multiplicity 1
 C         4.241872        -1.640462         1.205347
 C         3.130402        -0.860076         0.584321
 O         1.910127        -1.423342         0.231774
 C         1.440142        -0.035907         0.044872
 C         0.010209        -0.047164         0.558716
 C         2.070281         0.338596        -1.290011
 C         3.477111         0.279839        -0.649117
 C         2.727850         0.541628         0.739296
 O         3.061621         1.379397         1.718538
 H         5.201581        -1.341450         0.728417
 H         4.202223        -1.519238         2.315661
 H         4.183766        -2.739229         1.079344
 H         0.012594        -0.353295         1.591587
 H        -0.431877         0.977418         0.428094
 H        -0.620419        -0.755018        -0.020601
 H         1.939268        -0.340332        -2.166522
 H         1.792293         1.384778        -1.509882
 H         4.447755         0.655575        -0.884590
 H         3.317000         2.257240         1.336399
