19
Iteration:   471
 C         4.433700        -1.832368         0.700874
 C         3.331217        -0.897018         0.354164
 O         2.091084        -1.422128        -0.066246
 C         1.510086        -0.097649         0.053511
 C         0.078533         0.119639         0.238261
 C         2.201078         0.862516        -1.076077
 C         3.432098         0.731058        -0.245043
 C         2.658712         0.259806         0.992614
 O         2.426949         0.892198         2.191687
 H         4.119526        -2.640250         1.434089
 H         4.898411        -2.217173        -0.238240
 H         5.290663        -1.270536         1.172926
 H        -0.287162         1.014742         0.767046
 H        -0.351894         0.356234        -0.780444
 H        -0.443627        -0.718808         0.713549
 H         2.260163         0.459630        -2.164166
 H         1.609349         1.863757        -0.984469
 H         4.344792         1.270863        -0.310126
 H         3.281217         1.035643         2.594605
