19
Iteration:  1836
 C         4.346418        -1.803797         1.029295
 C         3.357861        -0.873213         0.389418
 O         2.064760        -1.446003         0.092321
 C         1.436856        -0.176092         0.202141
 C         0.014124         0.009955         0.507846
 C         1.975747         0.470277        -1.212410
 C         3.406950         0.400583        -0.475098
 C         2.692546         0.493705         0.801121
 O         2.810132         1.456069         1.832134
 H         5.074947        -1.373221         1.751318
 H         3.817187        -2.578508         1.570312
 H         5.034809        -2.341229         0.339249
 H        -0.379019        -0.969188         0.721294
 H        -0.290798         0.553977         1.410027
 H        -0.651536         0.413013        -0.259050
 H         1.949267        -0.336272        -2.029438
 H         1.729419         1.469927        -1.534435
 H         4.282981         1.025483        -0.800977
 H         3.433890         2.160936         1.557479
