19
Iteration:  2005charge 0 multiplicity 1
 C         4.247698        -1.735118         1.077740
 C         3.236065        -0.843252         0.454934
 O         2.046759        -1.472977         0.255418
 C         1.374031        -0.150616         0.067242
 C        -0.032854        -0.065820         0.504352
 C         2.007565         0.452363        -1.245998
 C         3.393798         0.430518        -0.668213
 C         2.793673         0.553189         0.763405
 O         3.050343         1.366569         1.887186
 H         4.261765        -2.680475         0.515439
 H         5.235516        -1.503231         1.435779
 H         3.868415        -2.088441         2.039131
 H        -0.093525         0.091281         1.652723
 H        -0.397961         0.855775        -0.029856
 H        -0.822088        -0.823819         0.215171
 H         1.875684        -0.116860        -2.162599
 H         1.596187         1.490717        -1.361157
 H         4.252611         0.972175        -1.084969
 H         3.205962         2.248545         1.485320
