19
Iteration:  4912
 C         4.475967        -1.506943         0.761461
 C         3.208263        -0.825129         0.501301
 O         1.936758        -1.510099         0.117859
 C         1.437165        -0.096176         0.048253
 C        -0.063681         0.151313         0.275364
 C         2.118099         0.442678        -1.254924
 C         3.468220         0.418131        -0.366187
 C         2.699478         0.485980         0.902116
 O         2.852928         1.087082         2.137765
 H         5.332804        -1.362605         0.039414
 H         4.943119        -0.964421         1.554229
 H         4.425526        -2.599866         1.099378
 H        -0.624659        -0.701567        -0.168871
 H        -0.326175         0.279674         1.365885
 H        -0.344677         0.928892        -0.471267
 H         1.882467        -0.050484        -2.163194
 H         2.002152         1.524250        -1.446517
 H         4.405115         0.841097        -0.586074
 H         2.311349         0.469240         2.713689
