19
Iteration:   748
 C         4.427638        -1.670692         0.809837
 C         3.317350        -0.754305         0.440697
 O         2.155785        -1.412135         0.060968
 C         1.488085        -0.119739        -0.043627
 C        -0.020277        -0.035663         0.182077
 C         2.158965         0.677767        -1.232390
 C         3.419594         0.667465        -0.398663
 C         2.615456         0.453796         0.991903
 O         2.659454         0.851061         2.278638
 H         3.999783        -2.310288         1.545886
 H         4.531284        -2.174328        -0.074128
 H         5.266798        -1.220135         1.198150
 H        -0.137325         1.010207         0.052560
 H        -0.557011        -0.526774        -0.607270
 H        -0.407835        -0.275694         1.155752
 H         2.180306         0.110081        -2.064336
 H         1.647769         1.625078        -1.387283
 H         4.400625         1.126065        -0.362667
 H         1.922712         1.418588         2.547686
