19
Iteration:  4341
 C         4.206269        -1.730267         1.180838
 C         3.324320        -0.853159         0.362534
 O         2.092564        -1.458730         0.100924
 C         1.499143        -0.121876         0.024780
 C         0.048607        -0.091915         0.586154
 C         2.057097         0.508039        -1.248111
 C         3.410323         0.504716        -0.494787
 C         2.713875         0.522540         0.696348
 O         2.752313         1.299264         1.819938
 H         4.173493        -2.727392         0.832860
 H         5.337059        -1.431923         1.006550
 H         4.041716        -1.580718         2.263833
 H        -0.776321        -0.051801        -0.199096
 H        -0.120231        -1.061391         1.103972
 H        -0.023252         0.765299         1.235648
 H         1.861865         0.212587        -2.301656
 H         1.823599         1.537890        -1.149945
 H         4.219716         1.119762        -0.701114
 H         3.592776         1.351931         2.295147
