19
Iteration:  4192charge 0 multiplicity 1
 C         4.381401        -1.648409         0.984123
 C         3.220124        -0.813626         0.490777
 O         1.984809        -1.440098         0.083883
 C         1.478971        -0.087746         0.047699
 C        -0.005961        -0.001065         0.449610
 C         2.112642         0.450189        -1.283702
 C         3.425213         0.378877        -0.498514
 C         2.641057         0.452700         0.880126
 O         2.840784         1.251569         1.944021
 H         5.170609        -2.089014         0.284879
 H         4.846346        -0.974911         1.723668
 H         4.098430        -2.455522         1.746277
 H        -0.187667        -1.031790         0.743239
 H        -0.092643         0.684832         1.319215
 H        -0.688661         0.371790        -0.230227
 H         1.806124        -0.102254        -2.189300
 H         1.752023         1.548923        -1.376997
 H         4.424729         0.721123        -0.468385
 H         3.380971         2.007675         1.583184
