19
Iteration:     7charge 0 multiplicity 1
 C         4.339153        -1.784672         0.775605
 C         3.318500        -0.815737         0.441169
 O         2.040573        -1.335421        -0.174347
 C         1.495618        -0.015617        -0.029080
 C        -0.006229        -0.037674         0.182705
 C         2.269131         0.766452        -1.121954
 C         3.504173         0.556071        -0.206169
 C         2.628392         0.391308         1.006903
 O         2.646877         1.016874         2.238309
 H         3.947506        -2.495804         1.515172
 H         4.685753        -2.380731        -0.076865
 H         5.127763        -1.232420         1.365941
 H        -0.406949        -0.545395         1.078508
 H        -0.503316         0.948294         0.257367
 H        -0.511566        -0.648596        -0.606168
 H         2.142367         0.194929        -2.089470
 H         1.734553         1.771975        -1.294315
 H         4.611863         0.758485        -0.302163
 H         2.356366         0.451041         2.964720
