19
Iteration:   642
 C         4.423647        -1.778133         0.774630
 C         3.326804        -0.788684         0.363565
 O         2.091434        -1.412145        -0.135973
 C         1.532674        -0.018770         0.047400
 C         0.013760        -0.026736         0.194339
 C         2.152030         0.700543        -1.131421
 C         3.470948         0.615440        -0.251890
 C         2.642341         0.386627         1.018709
 O         2.485997         1.021298         2.267126
 H         3.984325        -2.499302         1.529374
 H         4.917304        -2.376009        -0.104720
 H         5.276395        -1.217456         1.181593
 H        -0.531149        -0.095783        -0.744195
 H        -0.356899        -0.886027         0.796387
 H        -0.292348         0.801065         0.857751
 H         2.041117         0.051502        -2.083692
 H         1.920044         1.755627        -1.386232
 H         4.418188         1.029596        -0.496870
 H         3.393256         1.046878         2.600097
