19
Iteration:  3585charge 0 multiplicity 1
 C         4.486547        -1.550740         0.941843
 C         3.227947        -0.874959         0.430704
 O         1.963783        -1.485391         0.136831
 C         1.418448        -0.029943         0.037102
 C         0.020301         0.255289         0.452059
 C         2.154007         0.421144        -1.258994
 C         3.421536         0.352930        -0.480001
 C         2.715258         0.483559         0.794153
 O         2.734617         0.992972         2.068073
 H         5.068034        -1.219433         1.795294
 H         4.231142        -2.566828         1.083291
 H         5.097707        -1.506648         0.018801
 H        -0.182724        -0.199158         1.433747
 H        -0.120212         1.371542         0.581513
 H        -0.632476        -0.156167        -0.368842
 H         1.897891        -0.201372        -2.111938
 H         1.770708         1.416522        -1.486502
 H         4.389766         0.711533        -0.840253
 H         2.738258         1.965688         2.047049
