19
Iteration:  1512charge 0 multiplicity 1
 C         4.413680        -1.644598         0.895758
 C         3.206420        -0.894148         0.518214
 O         2.057434        -1.496643         0.032944
 C         1.477362        -0.054659        -0.012250
 C         0.023266        -0.075510         0.531021
 C         2.213938         0.697575        -1.256082
 C         3.480241         0.378743        -0.465100
 C         2.652656         0.382827         0.886559
 O         2.567230         1.251626         1.979941
 H         4.801627        -1.365636         1.875354
 H         4.115198        -2.732222         1.151369
 H         5.323941        -1.737036         0.265305
 H         0.323783         0.066921         1.572140
 H        -0.563803         0.781594         0.189907
 H        -0.434752        -1.085306         0.456374
 H         2.121903         0.379877        -2.332842
 H         2.077911         1.830592        -1.278886
 H         4.504819         0.649630        -0.457697
 H         2.877625         2.082345         1.599291
