19
Iteration:  4465
 C         4.348426        -1.825243         0.893744
 C         3.287337        -0.862484         0.453139
 O         1.999912        -1.431878         0.237256
 C         1.411369        -0.057102         0.078174
 C        -0.057423        -0.161638         0.341896
 C         2.132907         0.547334        -1.236067
 C         3.467925         0.491980        -0.458822
 C         2.736365         0.506212         0.916832
 O         2.810131         1.446230         1.891174
 H         4.757326        -2.441681         0.015229
 H         5.212781        -1.257876         1.122856
 H         4.068064        -2.624409         1.656437
 H        -0.500288        -1.123118        -0.012729
 H        -0.235272        -0.101073         1.498142
 H        -0.599154         0.675713        -0.233554
 H         1.928722         0.033016        -2.141651
 H         1.847013         1.624306        -1.397205
 H         4.522160         0.860911        -0.689650
 H         2.880387         0.909297         2.689863
