19
Iteration:  3864charge 0 multiplicity 1
 C         4.421731        -1.734962         0.846208
 C         3.264207        -0.789526         0.504867
 O         2.021575        -1.387428         0.170711
 C         1.336125        -0.052307         0.075783
 C        -0.078045        -0.076237         0.069852
 C         2.125015         0.577575        -1.172933
 C         3.329368         0.495308        -0.329628
 C         2.626114         0.462472         0.972996
 O         3.026327         1.112262         2.118775
 H         4.513399        -2.101101         1.844985
 H         4.318670        -2.564816         0.083455
 H         5.355639        -1.278258         0.484559
 H        -0.341989         0.841794        -0.651743
 H        -0.316269        -0.981720        -0.587871
 H        -0.599624        -0.037817         1.029708
 H         2.103395        -0.044447        -2.067094
 H         1.588319         1.524406        -1.374921
 H         4.294269         0.859536        -0.365467
 H         2.793635         2.034355         1.814816
