19
Iteration:  3662charge 0 multiplicity 1
 C         4.238978        -1.897575         0.955829
 C         3.346608        -0.828271         0.390102
 O         1.995822        -1.382113         0.109268
 C         1.322419        -0.086681         0.038780
 C        -0.093008        -0.222821         0.278969
 C         2.128006         0.728090        -1.125920
 C         3.445954         0.472741        -0.490556
 C         2.718294         0.480930         0.895219
 O         3.004786         1.309852         2.045901
 H         5.303298        -1.842726         0.719823
 H         4.090519        -1.683091         1.969153
 H         3.822402        -2.904734         0.908097
 H        -0.348815         0.373004         1.120267
 H        -0.715959        -0.078325        -0.636956
 H        -0.085933        -1.322525         0.559915
 H         1.919801         0.519582        -2.186281
 H         1.959976         1.774330        -0.931458
 H         4.422183         0.802578        -0.600885
 H         3.106799         2.204203         1.715392
