19
Iteration:  3305
 C         4.239042        -1.719407         1.231825
 C         3.188896        -0.905393         0.608828
 O         1.897240        -1.342628         0.232841
 C         1.395487        -0.062905         0.029528
 C        -0.000565        -0.077933         0.550897
 C         2.079248         0.335764        -1.317683
 C         3.441833         0.307256        -0.646536
 C         2.781377         0.557559         0.715977
 O         3.068413         1.453456         1.758683
 H         5.252580        -1.358035         0.879600
 H         4.204250        -1.729544         2.334339
 H         4.065424        -2.772510         0.825877
 H        -0.000033        -0.638897         1.548138
 H        -0.464716         0.939287         0.687882
 H        -0.591115        -0.824399        -0.152379
 H         1.800342        -0.471522        -2.056898
 H         1.848314         1.302953        -1.806157
 H         4.409958         0.717326        -1.075307
 H         3.288826         2.291297         1.303963
