19
Iteration:  2844
 C         4.364083        -1.679849         0.959998
 C         3.249704        -0.856814         0.521685
 O         1.918249        -1.445798         0.428667
 C         1.480316        -0.071260         0.077680
 C         0.100642         0.072710         0.710112
 C         2.043687         0.202701        -1.407294
 C         3.368648         0.208399        -0.557992
 C         2.695725         0.548584         0.733295
 O         2.857330         1.560494         1.688640
 H         5.366120        -1.355272         0.544046
 H         4.391720        -2.032268         2.079479
 H         4.075164        -2.711042         0.555490
 H         0.134495         0.205150         1.808969
 H        -0.356767         0.879491         0.155815
 H        -0.409519        -0.867769         0.479984
 H         1.969189        -0.589734        -2.212632
 H         1.800746         1.252097        -1.628152
 H         4.211305         0.604472        -1.029444
 H         3.533547         2.134212         1.351763
