19
Iteration:  3508charge 0 multiplicity 1
 C         4.358720        -1.759755         0.963219
 C         3.210145        -0.826220         0.443926
 O         1.896837        -1.431028         0.145998
 C         1.385175        -0.091342         0.015921
 C        -0.018033        -0.029263         0.398904
 C         2.135928         0.443215        -1.310001
 C         3.407936         0.434050        -0.507251
 C         2.743767         0.511099         0.893762
 O         2.974204         1.313939         2.073445
 H         3.837432        -2.358842         1.738517
 H         4.827212        -2.424407         0.226823
 H         5.111715        -1.144749         1.477562
 H        -0.715454        -0.614715        -0.290308
 H        -0.029761        -0.435098         1.468435
 H        -0.294948         1.041545         0.465700
 H         2.025679        -0.394422        -2.023035
 H         1.770399         1.391379        -1.756912
 H         4.406109         0.849791        -0.892082
 H         3.205667         2.221879         1.725753
