19
Iteration:  2832
 C         4.303712        -1.688312         1.031326
 C         3.195470        -0.854993         0.514475
 O         1.950380        -1.499510         0.407362
 C         1.381252        -0.139975         0.073282
 C         0.037731         0.077884         0.755264
 C         2.132066         0.260630        -1.360990
 C         3.404465         0.299245        -0.672342
 C         2.787418         0.516845         0.695780
 O         2.850514         1.552594         1.641966
 H         5.261774        -1.333415         0.537710
 H         4.479503        -1.437836         2.150532
 H         4.223413        -2.752069         0.657274
 H         0.303126         0.073356         1.843864
 H        -0.606045         0.917367         0.642407
 H        -0.606756        -0.786884         0.597224
 H         1.922769        -0.417967        -2.234319
 H         1.840138         1.248183        -1.789656
 H         4.455769         0.466516        -0.795732
 H         3.763675         1.961771         1.583258
