19
Iteration:   330
 C         4.381640        -1.675400         0.872904
 C         3.184074        -0.867479         0.405652
 O         2.019088        -1.375276        -0.197326
 C         1.426465         0.019404        -0.120062
 C        -0.080679        -0.101235         0.083035
 C         2.300183         0.983285        -1.060500
 C         3.458579         0.525661        -0.138870
 C         2.522845         0.283675         1.035424
 O         2.831923         0.822920         2.263252
 H         3.970622        -2.448282         1.561285
 H         4.904483        -2.256620         0.113047
 H         5.013311        -0.944268         1.333939
 H        -0.627658         0.798186         0.355750
 H        -0.482792        -0.378293        -0.886720
 H        -0.122031        -0.836455         0.841019
 H         2.214905         0.782533        -2.025564
 H         2.015234         2.053639        -0.801174
 H         4.540638         0.883507        -0.172267
 H         3.399102         1.594863         2.123761
