19
Iteration:  3993
 C         4.187186        -1.790560         1.175217
 C         3.320780        -0.830413         0.350411
 O         1.998504        -1.413611        -0.019294
 C         1.421100        -0.141553         0.056486
 C         0.017881        -0.182216         0.615127
 C         2.198607         0.712976        -1.362217
 C         3.423695         0.512445        -0.542433
 C         2.732076         0.460924         0.813876
 O         2.811472         1.250001         1.999222
 H         3.850890        -2.778730         1.435783
 H         5.160907        -2.030268         0.540257
 H         4.543279        -1.312005         2.113844
 H        -0.007710         0.401575         1.552133
 H        -0.640142         0.177449        -0.134433
 H        -0.149464        -1.189039         0.801474
 H         2.045687         0.017692        -2.244682
 H         1.949836         1.759937        -1.593548
 H         4.312318         0.983092        -0.802606
 H         3.122027         2.128316         1.795763
