19
Iteration:  2744charge 0 multiplicity 1
 C         4.449060        -1.493597         0.974057
 C         3.209909        -0.883253         0.520065
 O         1.913406        -1.412129         0.507607
 C         1.351168        -0.023298         0.038253
 C        -0.088871         0.076270         0.459611
 C         1.973202         0.109237        -1.301927
 C         3.278498         0.294499        -0.606425
 C         2.736444         0.481710         0.796799
 O         3.171838         1.460264         1.681685
 H         5.306272        -1.228646         0.287551
 H         4.854778        -1.452814         2.105836
 H         4.396030        -2.620850         0.810551
 H        -0.104369        -0.627486         1.298847
 H        -0.104074         1.037064         0.904725
 H        -0.655100        -0.186660        -0.411527
 H         1.673570        -0.839596        -1.827318
 H         1.813829         0.991725        -1.992400
 H         4.350859         0.452986        -0.965089
 H         2.956493         1.416485         2.622935
