19
Iteration:  4591charge 0 multiplicity 1
 C         4.536981        -1.589651         0.771798
 C         3.244378        -0.847208         0.512677
 O         1.975248        -1.486445         0.177381
 C         1.395903        -0.022812         0.088271
 C        -0.050992         0.099456         0.155271
 C         2.090000         0.331027        -1.203267
 C         3.406700         0.454148        -0.396676
 C         2.651940         0.422829         0.946852
 O         2.848741         1.265557         2.073747
 H         4.884193        -2.120604        -0.106922
 H         5.276666        -0.762607         1.134265
 H         4.529084        -2.349370         1.542630
 H        -0.474609         0.041939        -0.900211
 H        -0.467719        -0.596828         0.892839
 H        -0.264903         1.151809         0.614895
 H         1.926672        -0.532245        -1.932358
 H         1.736241         1.287484        -1.511315
 H         4.425458         0.842824        -0.772804
 H         2.708870         0.839472         2.957159
