19
Iteration:  3935charge 0 multiplicity 1
 C         4.425665        -1.689610         0.951424
 C         3.303717        -0.891330         0.425533
 O         1.999609        -1.460722         0.094647
 C         1.446873        -0.121322         0.024873
 C        -0.078371         0.083540         0.392470
 C         2.144088         0.532524        -1.223951
 C         3.455517         0.524740        -0.418707
 C         2.729936         0.436212         0.875650
 O         2.715063         1.138308         2.025542
 H         4.198456        -2.099499         1.971824
 H         4.648672        -2.477754         0.218291
 H         5.349130        -1.113446         0.901576
 H        -0.058737         0.801147         1.129883
 H        -0.731346         0.375006        -0.394539
 H        -0.354570        -0.876340         0.869570
 H         2.032871        -0.024448        -2.203160
 H         1.920024         1.594713        -1.444485
 H         4.547537         0.799185        -0.688522
 H         2.645762         2.113550         1.820578
