19
Iteration:  4521charge 0 multiplicity 1
 C         4.305130        -1.675660         1.137956
 C         3.295666        -0.812645         0.312497
 O         2.055674        -1.429816        -0.065087
 C         1.454625        -0.054023         0.015407
 C         0.006524        -0.106312         0.585312
 C         2.110054         0.518395        -1.228652
 C         3.491730         0.518105        -0.534546
 C         2.727597         0.415192         0.821070
 O         2.743890         1.275363         1.928726
 H         4.079831        -2.809785         1.061400
 H         5.338737        -1.416237         1.224867
 H         3.971320        -1.670618         2.255435
 H        -0.694978        -0.512516        -0.164546
 H        -0.069497        -0.434462         1.675097
 H        -0.362878         1.031073         0.713553
 H         2.049106        -0.145893        -2.025415
 H         1.710204         1.546080        -1.372968
 H         4.363521         0.956095        -0.858150
 H         2.895065         0.736688         2.769911
