19
Iteration:   464
 C         4.500492        -1.809744         0.701432
 C         3.299630        -0.875772         0.373295
 O         2.073997        -1.460524        -0.130457
 C         1.521015        -0.109994         0.046030
 C         0.058322         0.157191         0.231147
 C         2.171890         0.851753        -1.038467
 C         3.429882         0.703847        -0.243600
 C         2.674212         0.242692         0.995876
 O         2.422240         0.904859         2.181964
 H         4.300833        -2.686660         1.393781
 H         4.927504        -2.496993        -0.073334
 H         5.309528        -1.141511         1.218991
 H         0.026502         1.207381         0.704237
 H        -0.412720         0.185336        -0.766338
 H        -0.652008        -0.506330         0.835853
 H         2.217019         0.569894        -2.043372
 H         1.620322         1.857622        -0.901233
 H         4.351031         1.269362        -0.173910
 H         3.260010         1.137795         2.618738
