19
Iteration:  3072
 C         4.384918        -1.820684         0.903011
 C         3.289796        -0.837077         0.572132
 O         1.960875        -1.424753         0.591092
 C         1.437243        -0.108150         0.192109
 C        -0.086857         0.128153         0.204929
 C         1.953819         0.114132        -1.199393
 C         3.379622         0.282167        -0.672580
 C         2.837071         0.606199         0.791641
 O         2.974253         1.586632         1.820534
 H         5.229695        -1.550960         0.346884
 H         4.565505        -1.934995         1.981445
 H         4.009872        -2.755235         0.571910
 H        -0.569684         0.610747         1.101286
 H        -0.444022         0.900994        -0.522919
 H        -0.537926        -0.857129         0.025044
 H         1.581210        -0.667401        -1.870212
 H         1.481016         0.957647        -1.672239
 H         4.325222         0.694713        -1.186998
 H         3.819857         2.083775         1.586273
