19
Iteration:  4697
 C         4.314589        -1.726128         1.040311
 C         3.318262        -0.850304         0.387464
 O         2.006479        -1.481749         0.003542
 C         1.448552        -0.080874         0.000517
 C         0.039081        -0.063957         0.487736
 C         2.146868         0.718377        -1.242043
 C         3.465025         0.562057        -0.450185
 C         2.636192         0.362050         0.881593
 O         2.764733         1.201597         1.935297
 H         5.021745        -2.091756         0.284372
 H         5.084759        -1.096843         1.613736
 H         3.917356        -2.481814         1.733905
 H        -0.454097        -0.987923         0.282116
 H         0.054784        -0.038110         1.521542
 H        -0.588963         0.750718         0.012538
 H         2.078896         0.213682        -2.210742
 H         1.718709         1.722089        -1.426414
 H         4.487895         1.115250        -0.491671
 H         2.680574         0.762287         2.809630
