19
Iteration:  1580
 C         4.467604        -1.591557         0.907159
 C         3.199152        -0.824605         0.546150
 O         1.946372        -1.394640         0.218172
 C         1.468944        -0.079449         0.013727
 C        -0.046133        -0.108061         0.255710
 C         2.174059         0.476652        -1.325095
 C         3.404517         0.431077        -0.489254
 C         2.662336         0.528627         0.851726
 O         2.799712         1.182351         2.142667
 H         4.710915        -1.589164         1.998579
 H         4.197999        -2.581744         0.399312
 H         5.314120        -1.247632         0.285662
 H        -0.244996        -0.894371         1.028926
 H        -0.239496         0.861422         0.815936
 H        -0.627182         0.043548        -0.677752
 H         2.067509        -0.168068        -2.217306
 H         1.532115         1.391049        -1.549251
 H         4.390283         0.847372        -0.840445
 H         3.753154         1.182946         2.301060
