19
Iteration:   212charge 0 multiplicity 1
 C         4.390940        -1.728589         0.793865
 C         3.198842        -0.923193         0.400904
 O         2.057306        -1.338552        -0.323149
 C         1.494363         0.045152        -0.058792
 C        -0.050827        -0.056473         0.309340
 C         2.372054         0.908680        -1.043280
 C         3.517640         0.489940        -0.191651
 C         2.594170         0.266999         1.034174
 O         2.616702         0.982500         2.225420
 H         4.075122        -2.454791         1.568199
 H         4.738707        -2.293455        -0.081867
 H         5.135638        -1.002890         1.199399
 H        -0.502597         0.987430         0.358023
 H        -0.484108        -0.630819        -0.501028
 H        -0.008976        -0.556895         1.283627
 H         2.371933         0.419021        -2.083756
 H         2.086038         1.976924        -1.050400
 H         4.583176         0.873419        -0.308873
 H         1.778802         0.785707         2.667797
