19
Iteration:  2685
 C         4.368233        -1.810786         0.969628
 C         3.290738        -0.847937         0.506284
 O         1.984648        -1.450533         0.453593
 C         1.477057        -0.118153         0.245002
 C        -0.028049         0.026895         0.530555
 C         1.903349         0.253862        -1.234145
 C         3.355205         0.351849        -0.606446
 C         2.779265         0.494525         0.794028
 O         3.030950         1.666417         1.494717
 H         5.143948        -1.417020         1.614323
 H         3.791097        -2.505599         1.597528
 H         4.698733        -2.386716         0.105047
 H        -0.405242        -0.106616         1.536126
 H        -0.346671         0.959644         0.025200
 H        -0.459725        -0.762379        -0.077023
 H         1.731024        -0.453849        -2.021626
 H         1.576198         1.241669        -1.530751
 H         4.299684         0.775898        -0.866007
 H         2.747930         1.452471         2.410010
