19
Iteration:  1739
 C         4.466375        -1.609189         0.966074
 C         3.346542        -0.799429         0.469588
 O         2.067831        -1.492287         0.243572
 C         1.434985        -0.171636         0.091101
 C         0.027514         0.130694         0.369790
 C         1.969737         0.347057        -1.285220
 C         3.299927         0.415199        -0.530435
 C         2.669220         0.402064         0.822387
 O         2.823343         1.276994         1.985252
 H         5.046108        -2.012829         0.169695
 H         5.070132        -1.019055         1.684986
 H         4.112180        -2.500596         1.443027
 H        -0.647031         0.131639        -0.492590
 H        -0.517199        -0.499713         1.078364
 H         0.003030         1.174276         0.740155
 H         2.110924        -0.313039        -2.113387
 H         1.425292         1.270344        -1.410127
 H         4.296618         0.968968        -0.648022
 H         3.035701         2.098269         1.482203
