19
Iteration:  3019
 C         4.361199        -1.640966         1.066471
 C         3.189060        -0.908116         0.560396
 O         1.931826        -1.459518         0.361085
 C         1.445925        -0.111163         0.069731
 C         0.092820         0.192790         0.664215
 C         2.063826         0.188989        -1.375551
 C         3.326864         0.147561        -0.588946
 C         2.784050         0.513883         0.760255
 O         2.940306         1.605588         1.569774
 H         5.100791        -0.902373         1.469699
 H         4.070543        -2.183478         2.036037
 H         4.829309        -2.335897         0.308599
 H         0.124626        -0.251216         1.705614
 H        -0.086850         1.304501         0.709844
 H        -0.762533        -0.290647         0.145245
 H         1.796688        -0.618608        -2.190147
 H         1.849260         1.167961        -1.851932
 H         4.359004         0.174145        -1.074324
 H         2.367979         1.451357         2.387186
