19
Iteration:  1557charge 0 multiplicity 1
 C         4.395626        -1.715255         0.942250
 C         3.355832        -0.770781         0.319033
 O         2.157447        -1.471919         0.106295
 C         1.466333        -0.076185         0.079369
 C        -0.069397         0.070358         0.344556
 C         2.048672         0.392995        -1.214568
 C         3.338760         0.531142        -0.414788
 C         2.740130         0.495749         0.921828
 O         2.686526         1.193115         2.060860
 H         4.509393        -1.545545         2.019741
 H         3.897218        -2.757001         0.731447
 H         5.400919        -1.794922         0.464959
 H        -0.413623        -0.484161         1.239845
 H        -0.422297         1.124957         0.277439
 H        -0.360044        -0.347214        -0.651029
 H         2.053794        -0.362653        -2.027989
 H         1.556386         1.339102        -1.645967
 H         4.249415         1.008256        -0.834551
 H         3.479137         1.584290         2.452798
