19
Iteration:  2862
 C         4.431272        -1.811578         0.910076
 C         3.287780        -0.816802         0.579280
 O         1.990143        -1.399688         0.409241
 C         1.471086        -0.096095         0.134275
 C        -0.038722         0.140354         0.517291
 C         1.949959         0.137806        -1.217826
 C         3.343204         0.210507        -0.638688
 C         2.804498         0.580756         0.765142
 O         2.890403         1.569883         1.729921
 H         5.350705        -1.264482         0.836598
 H         4.405789        -2.250204         1.869077
 H         4.485896        -2.625414         0.214627
 H        -0.040794         0.491848         1.563669
 H        -0.538084         0.935017        -0.053251
 H        -0.487243        -0.849300         0.386454
 H         1.602052        -0.712756        -1.781489
 H         1.694571         1.097185        -1.697889
 H         4.417857         0.386452        -0.953156
 H         2.799295         2.377647         1.229969
