19
Iteration:  3680charge 0 multiplicity 1
 C         4.319715        -1.815486         0.937861
 C         3.240304        -0.881902         0.481697
 O         1.970204        -1.421204         0.039528
 C         1.463114        -0.038067         0.053672
 C        -0.093877        -0.163437         0.227123
 C         2.058759         0.630090        -1.184421
 C         3.379616         0.494952        -0.356287
 C         2.749772         0.483261         0.990250
 O         3.026180         1.276753         2.052765
 H         5.029677        -1.790133         0.109024
 H         4.747627        -1.598468         1.971309
 H         3.818401        -2.820703         0.817230
 H        -0.439152         0.742256         0.803827
 H        -0.568807        -0.065963        -0.748625
 H        -0.375901        -1.075188         0.633763
 H         1.985889         0.086900        -2.126469
 H         1.656232         1.673990        -1.342965
 H         4.361540         0.929433        -0.673144
 H         3.204813         2.155370         1.718915
