19
Iteration:  3086charge 0 multiplicity 1
 C         4.359944        -1.829047         0.930342
 C         3.309923        -0.775665         0.571106
 O         1.901855        -1.429052         0.506528
 C         1.421595        -0.114760         0.205944
 C        -0.044685         0.079553         0.239985
 C         1.939001         0.167644        -1.229514
 C         3.297866         0.253940        -0.582913
 C         2.807374         0.667358         0.746451
 O         3.087494         1.546981         1.805764
 H         5.441235        -1.749294         0.530010
 H         4.601605        -1.663763         2.018951
 H         4.021577        -2.909863         0.777321
 H        -0.312197         0.462626         1.204945
 H        -0.320651         0.604344        -0.715604
 H        -0.539247        -0.938608         0.162267
 H         1.892697        -0.659336        -2.022110
 H         1.676931         1.226419        -1.485604
 H         4.279820         0.351679        -1.087983
 H         3.104669         2.451246         1.487957
