19
Iteration:  4242charge 0 multiplicity 1
 C         4.490176        -1.632466         0.798130
 C         3.314486        -0.769500         0.480957
 O         1.970646        -1.435386         0.297426
 C         1.461472        -0.105790         0.143850
 C        -0.046689         0.120725         0.160526
 C         2.038016         0.310738        -1.179298
 C         3.352935         0.364394        -0.461785
 C         2.688316         0.552485         0.906618
 O         2.868261         1.179887         2.063955
 H         4.311876        -2.475331         0.188021
 H         5.488786        -1.184905         0.470567
 H         4.707313        -1.917882         1.794119
 H        -0.589063        -0.878252         0.034476
 H        -0.497950         0.704150         0.987017
 H        -0.170150         0.835197        -0.733020
 H         2.069134        -0.473841        -1.947103
 H         1.904743         1.228766        -1.648343
 H         4.306673         0.755083        -0.952246
 H         2.228167         1.844125         2.283551
