19
Iteration:  3711
 C         4.451956        -1.675079         0.765530
 C         3.328376        -0.849957         0.415564
 O         1.959707        -1.485399         0.174356
 C         1.352838        -0.038850         0.040681
 C        -0.137204         0.094952         0.191434
 C         2.138924         0.458681        -1.223473
 C         3.400568         0.430890        -0.312225
 C         2.680597         0.467555         0.963202
 O         2.905911         1.135243         2.161021
 H         4.770772        -1.878155        -0.257524
 H         5.243827        -1.037668         1.310593
 H         4.220225        -2.572827         1.373566
 H        -0.114618         1.249896         0.218107
 H        -0.650352        -0.283545        -0.698636
 H        -0.478604        -0.344190         1.128678
 H         2.194970        -0.225787        -2.092227
 H         1.660375         1.449584        -1.478668
 H         4.387195         0.900765        -0.605159
 H         3.086704         2.114268         2.089801
