19
Iteration:   967
 C         4.337967        -1.651194         1.085505
 C         3.397854        -0.680425         0.357136
 O         2.151248        -1.391907         0.053196
 C         1.486122        -0.069269        -0.046579
 C         0.011364        -0.080619         0.290991
 C         2.073559         0.548469        -1.267750
 C         3.404816         0.664108        -0.517182
 C         2.637622         0.496951         0.880504
 O         2.748734         0.845698         2.209567
 H         3.747249        -1.934711         2.029700
 H         4.194160        -2.476768         0.343250
 H         5.377445        -1.393131         1.205292
 H        -0.430416        -1.030157         0.488655
 H        -0.312535         0.555684         1.081477
 H        -0.510786         0.317525        -0.576255
 H         2.032821        -0.085131        -2.218946
 H         1.615386         1.571696        -1.377133
 H         4.296851         1.336670        -0.631558
 H         2.177028         1.573256         2.488875
