19
Iteration:    31charge 0 multiplicity 1
 C         4.241438        -1.897484         0.699201
 C         3.266132        -0.850324         0.415690
 O         2.102643        -1.301813        -0.126476
 C         1.499896         0.099013        -0.057391
 C         0.095699        -0.094436         0.342491
 C         2.408529         0.700099        -1.206955
 C         3.481095         0.583179        -0.264075
 C         2.663166         0.454603         0.990360
 O         2.454107         1.032822         2.291171
 H         3.979700        -2.721605         1.290791
 H         4.470801        -2.301109        -0.272529
 H         5.152323        -1.398785         1.184284
 H        -0.062708         0.019602         1.355510
 H        -0.647743         0.620531         0.001718
 H        -0.273061        -1.118518         0.148252
 H         2.462325         0.211947        -2.090215
 H         2.277086         1.862225        -1.455462
 H         4.321100         1.333138        -0.367644
 H         2.301557         0.308015         2.966440
