19
Iteration:  3385
 C         4.367468        -1.580411         0.932014
 C         3.252592        -0.765937         0.457043
 O         1.907006        -1.436220         0.440624
 C         1.470754        -0.116774         0.042434
 C        -0.054719         0.252259         0.400648
 C         2.140175         0.131617        -1.430148
 C         3.446189         0.322833        -0.633927
 C         2.745802         0.537277         0.760401
 O         2.888342         1.191142         2.069412
 H         4.683416        -2.236755         0.125927
 H         5.112187        -0.822837         1.294052
 H         4.121207        -2.176437         1.793225
 H         0.103709         1.226014         1.018815
 H        -0.700600         0.393260        -0.502259
 H        -0.474740        -0.524548         1.073192
 H         2.016306        -0.672888        -2.137346
 H         1.781210         1.152244        -1.734074
 H         4.406084         0.521979        -0.983685
 H         2.573437         2.123313         1.989034
