19
Iteration:  2104
 C         4.369286        -1.685863         1.062646
 C         3.312255        -0.872011         0.355689
 O         1.991514        -1.482313         0.327975
 C         1.408290        -0.116308         0.137573
 C         0.024738         0.210893         0.507784
 C         1.979854         0.224780        -1.198005
 C         3.328256         0.296341        -0.655060
 C         2.733371         0.540888         0.725245
 O         2.961825         1.394005         1.849793
 H         5.413018        -1.297813         0.889746
 H         4.204944        -2.021101         2.103584
 H         4.438498        -2.662519         0.544653
 H        -0.544950        -0.599608         1.105411
 H         0.021064         1.109893         1.154459
 H        -0.509216         0.562103        -0.429297
 H         1.722216        -0.510607        -1.954952
 H         1.648390         1.270720        -1.493688
 H         4.257871         0.491334        -1.167081
 H         2.991261         2.322927         1.603587
