19
Iteration:  1098charge 0 multiplicity 1
 C         4.351491        -1.608256         0.565109
 C         3.151625        -0.790666         0.626944
 O         2.017342        -1.372584         0.117310
 C         1.526201        -0.103048        -0.014831
 C        -0.000400        -0.081557         0.273223
 C         2.350655         0.492402        -1.251679
 C         3.516324         0.564644        -0.310248
 C         2.629674         0.524192         0.955109
 O         2.579074         1.039745         2.231809
 H         4.073297        -2.688489         0.681330
 H         4.925301        -1.638040        -0.391160
 H         5.080491        -1.475659         1.354036
 H        -0.121202        -0.095237         1.344942
 H        -0.475135         0.755255        -0.175928
 H        -0.417007        -1.035206        -0.013060
 H         2.748076        -0.278497        -1.929001
 H         2.222909         1.340697        -1.898293
 H         4.488642         0.898681        -0.553043
 H         2.380055         2.008945         2.315895
