19
Iteration:  2934
 C         4.376501        -1.554541         1.112342
 C         3.239722        -0.820207         0.402697
 O         1.894124        -1.429784         0.396520
 C         1.358815        -0.077424         0.158203
 C        -0.182286         0.057831         0.638311
 C         2.005192         0.154953        -1.373288
 C         3.421965         0.154958        -0.603130
 C         2.790013         0.581526         0.749900
 O         3.109911         1.539852         1.636941
 H         4.791924        -0.902022         1.948085
 H         4.029481        -2.563601         1.511436
 H         5.209118        -1.846209         0.381553
 H        -0.258895        -0.311820         1.648159
 H        -0.584351         1.086833         0.725562
 H        -0.687495        -0.603147        -0.088730
 H         1.817646        -0.715016        -2.066376
 H         1.863538         1.087236        -1.967323
 H         4.422725         0.259125        -1.124934
 H         3.975971         1.236018         1.902190
