19
Iteration:  2938
 C         4.351836        -1.560415         1.135627
 C         3.238970        -0.827644         0.396811
 O         1.908891        -1.395912         0.388274
 C         1.363435        -0.058942         0.138914
 C        -0.158726         0.047334         0.659724
 C         2.004588         0.127391        -1.357260
 C         3.423858         0.168433        -0.650623
 C         2.764717         0.551848         0.735158
 O         3.103345         1.527944         1.641900
 H         4.700946        -0.965001         1.949888
 H         3.998625        -2.439876         1.551589
 H         5.203932        -1.860420         0.569391
 H        -0.112208        -0.486112         1.658016
 H        -0.483427         1.106756         0.702780
 H        -0.791584        -0.532878        -0.061805
 H         1.884389        -0.663500        -2.055352
 H         1.817663         1.126420        -1.777601
 H         4.408748         0.381629        -1.107454
 H         4.075531         1.296693         1.810311
