19
Iteration:  1478charge 0 multiplicity 1
 C         4.455332        -1.737162         0.893197
 C         3.207593        -0.842309         0.486144
 O         2.028604        -1.425024        -0.049874
 C         1.440689        -0.046821        -0.014646
 C        -0.028427        -0.130918         0.436141
 C         2.164364         0.515426        -1.253514
 C         3.470458         0.522121        -0.383711
 C         2.711932         0.485588         0.943474
 O         2.735577         1.254371         2.073774
 H         5.013826        -0.942602         1.410290
 H         3.997807        -2.460323         1.587538
 H         4.983458        -2.238686         0.048699
 H        -0.011953         0.058403         1.517140
 H        -0.770191         0.587722         0.120930
 H        -0.459255        -1.099737         0.212103
 H         2.134463        -0.309903        -2.034526
 H         1.986671         1.535150        -1.628546
 H         4.471087         0.822549        -0.462632
 H         2.131379         2.027407         1.987641
