19
Iteration:  4683
 C         4.308314        -1.760829         1.006645
 C         3.251048        -0.868140         0.418745
 O         2.048824        -1.421420        -0.040636
 C         1.452576        -0.152623        -0.006323
 C         0.014892        -0.177600         0.525762
 C         2.182720         0.690998        -1.212193
 C         3.418602         0.555933        -0.370591
 C         2.696401         0.451997         0.835116
 O         2.825664         1.302450         1.901676
 H         4.986494        -2.393800         0.356680
 H         4.759190        -1.206148         1.776479
 H         3.627338        -2.636971         1.329086
 H        -0.501174        -1.109315         0.289776
 H        -0.032175         0.063876         1.679269
 H        -0.534920         0.615905         0.062049
 H         2.099336         0.481065        -2.335407
 H         1.926432         1.784920        -0.872233
 H         4.420332         0.946410        -0.550207
 H         2.135973         0.925724         2.534917
