19
Iteration:  1949charge 0 multiplicity 1
 C         4.436112        -1.548549         1.039718
 C         3.197332        -0.829362         0.438658
 O         1.960057        -1.448746         0.228658
 C         1.348767        -0.076265         0.057240
 C        -0.140663         0.018452         0.439785
 C         2.014705         0.402409        -1.296761
 C         3.434638         0.364079        -0.531005
 C         2.688643         0.452761         0.805496
 O         3.105566         1.230990         1.951641
 H         3.956462        -2.476464         1.357641
 H         5.189336        -1.850380         0.248128
 H         4.764972        -1.017188         1.930529
 H        -0.183113         0.270927         1.556436
 H        -0.506785         0.814518        -0.312949
 H        -0.499660        -1.021203         0.176346
 H         1.860129        -0.207386        -2.192932
 H         1.642398         1.459776        -1.427135
 H         4.464451         0.372458        -0.900778
 H         3.275946         2.172886         1.675291
