19
Iteration:   960
 C         4.374128        -1.649598         1.058858
 C         3.403021        -0.683159         0.404476
 O         2.136822        -1.458799         0.053051
 C         1.432902        -0.095428         0.058044
 C        -0.018011        -0.022645         0.247465
 C         2.082067         0.574426        -1.271065
 C         3.436009         0.716644        -0.484750
 C         2.680569         0.432356         0.841067
 O         2.716168         0.868677         2.194035
 H         3.907809        -1.979636         1.939746
 H         4.385624        -2.531080         0.340072
 H         5.417355        -1.303138         1.178231
 H        -0.632640        -0.972011         0.457220
 H        -0.025130         0.627265         1.173270
 H        -0.570181         0.307316        -0.673907
 H         2.060740         0.022293        -2.181804
 H         1.586942         1.592827        -1.436727
 H         4.247820         1.260779        -0.845309
 H         2.061683         1.576221         2.279779
