19
Iteration:   381charge 0 multiplicity 1
 C         4.180906        -1.867981         0.856382
 C         3.350239        -0.721194         0.362049
 O         2.184483        -1.319426        -0.139036
 C         1.504192         0.006962         0.027559
 C        -0.046031        -0.080345         0.137678
 C         2.156356         0.868462        -1.160324
 C         3.425117         0.660670        -0.306388
 C         2.723679         0.409652         1.016705
 O         2.748320         0.764556         2.369952
 H         3.418140        -2.593230         1.255554
 H         4.409533        -2.291762        -0.172424
 H         5.028874        -1.645892         1.404071
 H        -0.474164         0.767140        -0.436128
 H        -0.285145        -0.981111        -0.525233
 H        -0.281331        -0.074829         1.185139
 H         2.124697         0.278501        -2.252450
 H         1.944883         1.915936        -1.222642
 H         4.413667         1.263136        -0.252549
 H         2.020637         1.360127         2.555801
