19
Iteration:   176
 C         4.292254        -1.845118         0.846328
 C         3.327786        -0.806855         0.339865
 O         2.090646        -1.348161        -0.178457
 C         1.441747        -0.068724         0.015623
 C        -0.007861        -0.016073         0.024152
 C         2.182556         0.889661        -0.978280
 C         3.425154         0.694263        -0.252911
 C         2.640084         0.314095         1.036389
 O         2.755093         0.927115         2.272593
 H         3.671074        -2.520863         1.469343
 H         4.800822        -2.472257         0.097939
 H         5.022837        -1.475844         1.508049
 H        -0.454624         0.780377        -0.517112
 H        -0.346229        -0.908306        -0.452494
 H        -0.502332        -0.031003         0.941397
 H         2.152633         0.510713        -1.963920
 H         1.727517         2.021243        -0.989169
 H         4.450382         1.123893        -0.380551
 H         3.093180         0.215911         2.834912
