19
Iteration:   505
 C         4.282296        -1.810798         0.690378
 C         3.288256        -0.770502         0.421277
 O         2.077993        -1.209192        -0.179225
 C         1.482238         0.036998        -0.012370
 C        -0.055776        -0.201788         0.261024
 C         2.315443         0.743859        -1.174454
 C         3.569143         0.518012        -0.327122
 C         2.631932         0.457251         1.054219
 O         2.538974         0.948256         2.425796
 H         3.781468        -2.742191         1.136732
 H         4.586455        -2.052477        -0.354773
 H         5.136063        -1.284392         1.300628
 H        -0.160869         0.028936         1.356677
 H        -0.627983         0.375587        -0.514629
 H        -0.219282        -1.278029        -0.019976
 H         2.227739         0.182620        -2.151992
 H         2.083545         1.910857        -1.454641
 H         4.497181         0.934522        -0.566539
 H         3.418333         0.869755         2.805883
