19
Iteration:   141
 C         4.307355        -1.795430         0.774697
 C         3.252572        -0.715516         0.435161
 O         1.995849        -1.265967        -0.085476
 C         1.432872         0.014529        -0.032978
 C        -0.093663        -0.072860        -0.071804
 C         2.219138         0.778794        -1.088840
 C         3.450645         0.627211        -0.310960
 C         2.630996         0.473321         1.083730
 O         2.864425         0.792761         2.433606
 H         3.803461        -2.562396         1.340985
 H         4.740932        -2.232916        -0.129549
 H         5.152820        -1.407318         1.411445
 H        -0.513966         0.639701        -0.678846
 H        -0.124039        -1.084300        -0.519243
 H        -0.408958        -0.180894         0.972692
 H         2.408225         0.229617        -1.997935
 H         2.016009         1.986150        -1.409383
 H         4.414113         0.901147        -0.519623
 H         3.109054         0.009868         2.931734
