19
Iteration:  1722charge 0 multiplicity 1
 C         4.471611        -1.691922         0.981868
 C         3.329696        -0.866959         0.422424
 O         2.069319        -1.584405         0.258419
 C         1.414296        -0.215316         0.081377
 C        -0.013475         0.145832         0.458173
 C         2.062844         0.431447        -1.228347
 C         3.404854         0.536011        -0.473618
 C         2.676431         0.433070         0.797794
 O         2.780561         1.307699         1.845614
 H         4.949082        -2.388407         0.222087
 H         5.287078        -0.922813         1.277195
 H         4.039181        -2.190837         1.899006
 H        -0.689517         0.148493        -0.427650
 H        -0.534548        -0.561103         1.184044
 H        -0.191694         1.070199         1.070500
 H         1.879628        -0.162168        -2.187060
 H         1.805228         1.503760        -1.560609
 H         4.271059         1.020583        -0.860744
 H         2.203315         2.071367         1.673204
