19
Iteration:  2680
 C         4.328399        -1.832038         0.994863
 C         3.321905        -0.845395         0.495876
 O         1.966747        -1.474648         0.420959
 C         1.450405        -0.111186         0.248561
 C         0.014438         0.006503         0.548318
 C         1.910646         0.246616        -1.225311
 C         3.382450         0.341932        -0.597503
 C         2.776120         0.538445         0.768287
 O         3.029840         1.689967         1.505461
 H         5.109283        -1.314504         1.587040
 H         3.838524        -2.673001         1.525942
 H         4.789100        -2.313559         0.107173
 H        -0.414742         0.011508         1.598101
 H        -0.436132         0.926548         0.122561
 H        -0.573725        -0.804803         0.014732
 H         1.697297        -0.507077        -2.037288
 H         1.645132         1.281776        -1.542973
 H         4.317514         0.854806        -0.948889
 H         2.646976         1.408860         2.378064
