19
Iteration:  4900charge 0 multiplicity 1
 C         4.480213        -1.605380         0.795525
 C         3.239139        -0.859311         0.457344
 O         1.999318        -1.474263         0.124649
 C         1.398101        -0.071370        -0.028518
 C        -0.051738         0.086494         0.291338
 C         2.176417         0.509130        -1.215129
 C         3.437867         0.504834        -0.397568
 C         2.625148         0.420252         0.933528
 O         2.842988         1.149707         2.090208
 H         5.264181        -1.623022        -0.030140
 H         4.809296        -1.239361         1.741397
 H         4.164114        -2.703036         1.014019
 H        -0.673127        -0.779689        -0.003497
 H        -0.159314         0.194902         1.437129
 H        -0.469261         1.043511         0.007292
 H         2.227941        -0.180256        -2.030983
 H         1.699830         1.465838        -1.396244
 H         4.469031         0.752347        -0.611294
 H         2.296214         0.885365         2.823885
