19
Iteration:  4348charge 0 multiplicity 1
 C         4.241010        -1.706872         1.126302
 C         3.353888        -0.829346         0.374168
 O         2.094659        -1.433195         0.124547
 C         1.505132        -0.134228         0.037413
 C         0.071607        -0.073855         0.525869
 C         2.037581         0.506482        -1.235959
 C         3.412947         0.409420        -0.569956
 C         2.669140         0.542416         0.776311
 O         2.738318         1.291749         1.845278
 H         4.250015        -2.858675         0.947432
 H         5.283016        -1.317495         1.047342
 H         3.816379        -1.654510         2.140449
 H        -0.755417         0.076492        -0.097735
 H        -0.039146        -0.954727         1.079026
 H        -0.041457         0.792819         1.255972
 H         1.805563         0.049373        -2.265707
 H         1.835062         1.643700        -1.264083
 H         4.263401         1.159523        -0.724527
 H         3.524525         1.198411         2.367933
