19
Iteration:  1470charge 0 multiplicity 1
 C         4.370962        -1.713987         0.913379
 C         3.294668        -0.814593         0.517546
 O         2.107216        -1.451029         0.006182
 C         1.421401        -0.083456        -0.045905
 C        -0.024189        -0.082036         0.395488
 C         2.124834         0.548181        -1.288386
 C         3.426410         0.521853        -0.415751
 C         2.687820         0.460520         0.943698
 O         2.770707         1.232990         2.128856
 H         5.256803        -1.190882         1.289783
 H         4.097192        -2.483423         1.741840
 H         4.733479        -2.218069        -0.024525
 H        -0.172806        -0.111501         1.514716
 H        -0.594456         0.750075        -0.119383
 H        -0.513057        -1.093232         0.142792
 H         2.001740        -0.186472        -2.103157
 H         1.728007         1.525979        -1.699818
 H         4.402618         0.899604        -0.679709
 H         2.162629         1.999320         1.968832
