19
Iteration:  4110charge 0 multiplicity 1
 C         4.387372        -1.716661         0.975697
 C         3.234559        -0.824092         0.381556
 O         1.944169        -1.382378         0.146285
 C         1.412763        -0.059962        -0.031598
 C        -0.057708        -0.071444         0.469420
 C         2.127224         0.398864        -1.317194
 C         3.468052         0.384110        -0.489518
 C         2.769712         0.501327         0.904777
 O         2.868436         1.314742         2.070579
 H         5.048644        -1.982304         0.184550
 H         4.975710        -1.222741         1.711334
 H         3.859769        -2.575298         1.292179
 H        -0.186119        -0.403900         1.514602
 H        -0.332129         0.999567         0.499337
 H        -0.844398        -0.686927        -0.179803
 H         2.050587        -0.354370        -2.121709
 H         1.821373         1.342147        -1.669370
 H         4.407425         0.839215        -0.693274
 H         2.860669         2.221845         1.707200
