19
Iteration:  2420
 C         4.431500        -1.626558         0.986838
 C         3.258916        -0.839226         0.554590
 O         1.945398        -1.479376         0.407252
 C         1.398529        -0.171402         0.131292
 C        -0.072721         0.319950         0.522339
 C         1.993618         0.163697        -1.274372
 C         3.328045         0.225436        -0.705301
 C         2.787411         0.510318         0.752411
 O         3.005834         1.447073         1.710905
 H         4.646076        -1.913050         2.084927
 H         4.434103        -2.565537         0.377176
 H         5.416385        -1.188151         0.649608
 H         0.114136         0.266829         1.578178
 H        -0.051068         1.368438         0.302238
 H        -0.870020        -0.338958         0.150807
 H         1.747859        -0.467573        -2.136877
 H         1.719261         1.233358        -1.465480
 H         4.258938         0.429685        -1.218961
 H         2.627307         1.147970         2.600607
