19
Iteration:  1680
 C         4.376389        -1.718267         0.997403
 C         3.260916        -0.817825         0.447145
 O         1.982276        -1.426914         0.147567
 C         1.451090         0.067698        -0.008160
 C         0.037290        -0.151021         0.594018
 C         2.120805         0.425478        -1.303076
 C         3.468526         0.343543        -0.545336
 C         2.708735         0.533416         0.821311
 O         2.748391         1.390237         1.955176
 H         4.165972        -2.778929         0.732471
 H         5.255414        -1.589704         0.433724
 H         4.629814        -1.525813         2.040936
 H        -0.400033        -0.518816        -0.314463
 H         0.339887        -0.856638         1.354429
 H        -0.359698         0.762767         0.984150
 H         2.114854        -0.252984        -2.157510
 H         1.898571         1.419194        -1.721679
 H         4.487506         0.513098        -0.784547
 H         1.855418         1.669042         2.176260
