19
Iteration:  3062
 C         4.386128        -1.767290         0.903203
 C         3.259122        -0.835128         0.555093
 O         2.001661        -1.371967         0.603949
 C         1.388712        -0.035598         0.182253
 C        -0.094524         0.148088         0.296949
 C         2.017254         0.124717        -1.255455
 C         3.329157         0.236820        -0.631255
 C         2.792102         0.508900         0.822236
 O         2.938876         1.567211         1.731148
 H         5.323540        -1.534461         0.423591
 H         4.699049        -2.053602         1.930202
 H         4.084198        -2.648525         0.348014
 H        -0.455126         0.386093         1.332984
 H        -0.181571         0.840767        -0.587688
 H        -0.614995        -0.749713        -0.102113
 H         1.983608        -0.839441        -1.864334
 H         1.647195         1.059154        -1.682826
 H         4.374677         0.530463        -1.043719
 H         3.916376         1.773878         1.853875
