19
Iteration:   817charge 0 multiplicity 1
 C         4.403205        -1.608327         0.929784
 C         3.251497        -0.884339         0.410377
 O         2.047140        -1.436754        -0.131099
 C         1.482215        -0.062993        -0.083469
 C         0.021914        -0.174293         0.326790
 C         2.189149         0.778832        -1.179688
 C         3.495682         0.551616        -0.299803
 C         2.597284         0.393830         0.980278
 O         2.604078         1.064005         2.138230
 H         4.173144        -2.188100         1.814160
 H         4.797848        -2.260153         0.078380
 H         5.135679        -0.867535         1.277375
 H        -0.138545         0.230514         1.380096
 H        -0.766210         0.275011        -0.365352
 H        -0.295375        -1.273564         0.406418
 H         2.375022         0.302709        -2.150416
 H         1.835858         1.843792        -1.280341
 H         4.387155         1.182971        -0.187028
 H         3.539330         1.220633         2.323392
