19
Iteration:  1748charge 0 multiplicity 1
 C         4.490108        -1.594652         0.963435
 C         3.292756        -0.798373         0.493957
 O         2.036252        -1.478146         0.196206
 C         1.431902        -0.198665         0.064573
 C         0.021205         0.118908         0.352701
 C         1.951919         0.308298        -1.256859
 C         3.342474         0.402043        -0.530724
 C         2.654417         0.499920         0.878780
 O         2.845321         1.274324         2.015257
 H         5.181910        -1.700420         0.131739
 H         5.016692        -1.092062         1.709490
 H         4.099807        -2.511422         1.373406
 H        -0.520015        -0.065470        -0.575378
 H        -0.352023        -0.488636         1.152037
 H        -0.138189         1.123094         0.709047
 H         1.795431        -0.380243        -2.092882
 H         1.660039         1.248880        -1.644584
 H         4.315955         0.655606        -1.049201
 H         3.380279         2.056123         1.750504
