19
Iteration:  2684charge 0 multiplicity 1
 C         4.359592        -1.817683         0.977431
 C         3.296252        -0.845836         0.503115
 O         1.979584        -1.456789         0.446674
 C         1.474494        -0.116465         0.248206
 C        -0.016272         0.021632         0.535208
 C         1.901625         0.252139        -1.233758
 C         3.364542         0.352449        -0.605212
 C         2.777497         0.501640         0.789993
 O         3.030744         1.672657         1.496925
 H         5.127525        -1.397104         1.609174
 H         3.817431        -2.522715         1.558217
 H         4.705527        -2.369549         0.108956
 H        -0.425346        -0.082526         1.563168
 H        -0.374002         0.964155         0.033204
 H        -0.493099        -0.777172        -0.063237
 H         1.725661        -0.461028        -2.025106
 H         1.600467         1.239699        -1.532704
 H         4.306390         0.799312        -0.881312
 H         2.727929         1.433045         2.377194
