19
Iteration:   862charge 0 multiplicity 1
 C         4.329035        -1.908574         0.783987
 C         3.462561        -0.767128         0.470551
 O         2.235529        -1.384575        -0.001254
 C         1.461696        -0.099319         0.079169
 C         0.040300        -0.183060         0.228484
 C         2.092560         0.626714        -1.175707
 C         3.427686         0.636641        -0.412005
 C         2.674428         0.538798         0.982781
 O         2.464956         1.210672         2.182117
 H         3.786829        -2.762120         1.153894
 H         4.894127        -2.273890        -0.151688
 H         4.986124        -1.674433         1.646164
 H        -0.289067        -0.569414         1.280983
 H        -0.448073         0.847567        -0.050093
 H        -0.407265        -0.871764        -0.563307
 H         1.704541         0.161318        -2.099690
 H         1.800656         1.703855        -1.179863
 H         4.349518         1.069184        -0.523887
 H         3.320637         1.470056         2.539920
