19
Iteration:  1283
 C         4.550992        -1.583976         0.795254
 C         3.214043        -0.931812         0.446510
 O         2.112595        -1.515390        -0.090665
 C         1.403280        -0.101417        -0.030407
 C        -0.050625         0.037521         0.332448
 C         2.226643         0.562570        -1.179101
 C         3.456750         0.425606        -0.238751
 C         2.632546         0.343804         1.029365
 O         2.573306         1.231339         2.141714
 H         4.333180        -2.238936         1.670453
 H         4.838576        -1.928548        -0.236060
 H         5.143449        -0.685117         1.079627
 H        -0.516847        -0.860428         0.877814
 H        -0.211469         0.995295         0.968318
 H        -0.811917         0.058426        -0.558658
 H         2.270326         0.099795        -2.197960
 H         1.958683         1.611440        -1.244331
 H         4.459366         0.878203        -0.491261
 H         3.117230         2.012261         1.885002
