19
Iteration:  3264charge 0 multiplicity 1
 C         4.182269        -1.841429         1.003841
 C         3.328490        -0.746577         0.603796
 O         1.950275        -1.438978         0.429702
 C         1.447935        -0.160813         0.168512
 C        -0.045955         0.015012         0.350352
 C         2.021379         0.193855        -1.158512
 C         3.352240         0.287953        -0.564491
 C         2.856589         0.613874         0.775340
 O         3.041399         1.589246         1.652961
 H         5.111772        -1.476044         1.398586
 H         3.682844        -2.659858         1.480784
 H         4.667754        -2.246802         0.111754
 H        -0.546326        -0.814246         0.902433
 H        -0.143839         0.947479         0.841403
 H        -0.540871         0.074238        -0.594583
 H         1.906505        -0.470339        -2.007199
 H         1.831227         1.260300        -1.353267
 H         4.333929         0.675994        -0.982296
 H         2.887712         2.409872         1.173227
