19
Iteration:  2931charge 0 multiplicity 1
 C         4.397472        -1.554495         1.089862
 C         3.241337        -0.836082         0.444021
 O         1.885282        -1.451647         0.402186
 C         1.357804        -0.081882         0.167723
 C        -0.180004         0.064841         0.613807
 C         2.010601         0.175475        -1.376040
 C         3.409698         0.160347        -0.600911
 C         2.795409         0.590132         0.738171
 O         3.115763         1.550778         1.637725
 H         4.843398        -0.926917         1.895788
 H         4.045012        -2.579159         1.494262
 H         5.160606        -1.783938         0.303524
 H        -0.360606        -0.233201         1.664529
 H        -0.627770         1.044824         0.672651
 H        -0.647998        -0.618175        -0.069381
 H         1.769915        -0.730633        -2.031256
 H         1.873101         1.046291        -2.036348
 H         4.341125         0.194599        -1.077653
 H         3.963450         1.234214         2.051249
