19
Iteration:  4931charge 0 multiplicity 1
 C         4.632589        -1.496175         0.839365
 C         3.226046        -0.848264         0.422120
 O         1.925775        -1.420511         0.182144
 C         1.425495        -0.008914         0.074713
 C        -0.044416         0.175909         0.155341
 C         2.093400         0.502231        -1.188364
 C         3.380619         0.383080        -0.510862
 C         2.644299         0.364122         0.938869
 O         2.823177         1.020423         2.171313
 H         5.353690        -1.567469        -0.056686
 H         5.090101        -0.791949         1.550195
 H         4.378805        -2.437057         1.442525
 H        -0.652191        -0.696383        -0.128114
 H        -0.376273         0.353831         1.246129
 H        -0.312138         0.973863        -0.465722
 H         2.130386        -0.165361        -2.053413
 H         1.613648         1.364195        -1.563141
 H         4.383721         0.544667        -0.918111
 H         2.870841         0.396465         2.953065
