19
Iteration:   776
 C         4.553166        -1.528788         0.932553
 C         3.327455        -0.874876         0.341015
 O         2.066567        -1.451908        -0.098349
 C         1.457210        -0.072803         0.038652
 C        -0.014210         0.063585         0.196936
 C         2.135678         0.649989        -1.129215
 C         3.413661         0.579928        -0.370750
 C         2.653283         0.283047         0.978309
 O         2.562135         0.884690         2.237874
 H         4.212574        -1.939880         1.940170
 H         4.929805        -2.292388         0.114303
 H         5.414947        -0.757475         1.069294
 H        -0.169097         1.079769         0.699852
 H        -0.440848         0.166781        -0.855280
 H        -0.474642        -0.706261         0.861688
 H         1.944875         0.069657        -2.169106
 H         1.760223         1.714714        -1.142703
 H         4.311693         1.156617        -0.421945
 H         2.895399         1.801424         2.251985
