19
Iteration:  2860
 C         4.437114        -1.814604         0.909243
 C         3.282365        -0.812412         0.587250
 O         1.976902        -1.387298         0.399956
 C         1.465049        -0.090610         0.136873
 C         0.008152         0.123164         0.526339
 C         1.949687         0.142940        -1.224537
 C         3.345682         0.199973        -0.636476
 C         2.772719         0.583511         0.771068
 O         2.884075         1.562174         1.723398
 H         5.380179        -1.306049         0.824363
 H         4.395487        -2.143212         1.917199
 H         4.454238        -2.629759         0.209330
 H         0.016925         0.488246         1.558111
 H        -0.525301         0.952652        -0.025879
 H        -0.493418        -0.878260         0.402668
 H         1.622432        -0.681117        -1.833193
 H         1.679636         1.071658        -1.732234
 H         4.431506         0.383080        -0.926989
 H         2.899683         2.409182         1.231355
