19
Iteration:  2077
 C         4.557616        -1.609640         0.899328
 C         3.219256        -0.937069         0.618967
 O         1.839162        -1.496270         0.438248
 C         1.413036        -0.064780         0.074763
 C         0.044230         0.213284         0.540795
 C         2.082695         0.393796        -1.378264
 C         3.372291         0.207178        -0.588176
 C         2.659701         0.409382         0.781513
 O         2.891148         1.350282         1.798997
 H         5.099346        -1.173638         0.070269
 H         5.146521        -1.551017         1.905308
 H         4.622295        -2.721656         0.636548
 H        -0.420837        -0.459370         1.186816
 H         0.148680         1.205072         1.018813
 H        -0.504659         0.535175        -0.305136
 H         1.794859        -0.445397        -2.076002
 H         1.923488         1.404951        -1.774199
 H         4.423918         0.413400        -0.847847
 H         2.652577         2.213321         1.442195
