19
Iteration:  2780charge 0 multiplicity 1
 C         4.339399        -1.543101         1.203957
 C         3.295570        -0.840453         0.378092
 O         2.074086        -1.496500         0.352072
 C         1.386958        -0.144537         0.138185
 C         0.024362         0.102832         0.614995
 C         1.880964         0.240755        -1.259314
 C         3.348888         0.234060        -0.783406
 C         2.796682         0.499716         0.697817
 O         3.011056         1.495996         1.672978
 H         5.355443        -1.581479         0.724406
 H         4.381632        -1.108188         2.257401
 H         3.879056        -2.568443         1.211354
 H        -0.459552        -0.388947         1.500314
 H        -0.078145         1.217458         0.780256
 H        -0.870216         0.075057        -0.075318
 H         1.452426        -0.476653        -2.028214
 H         1.583585         1.282304        -1.448718
 H         4.255627         0.362117        -1.319608
 H         3.042797         1.047573         2.529813
