19
Iteration:  2577
 C         4.450007        -1.524558         1.010563
 C         3.281938        -0.841996         0.461835
 O         1.918548        -1.467421         0.462626
 C         1.428453        -0.144494         0.250428
 C        -0.070982         0.278141         0.431055
 C         1.876129         0.117177        -1.263593
 C         3.326610         0.249600        -0.709071
 C         2.802335         0.519861         0.723358
 O         3.080016         1.398009         1.685745
 H         4.446310        -1.778487         2.121577
 H         4.589312        -2.574755         0.573986
 H         5.409147        -0.897397         0.977066
 H        -0.343680        -0.026190         1.386328
 H        -0.309130         1.336283         0.573649
 H        -0.860697        -0.097209        -0.145081
 H         1.609005        -0.778535        -1.863977
 H         1.491812         1.061685        -1.709348
 H         4.292560         0.495025        -1.209826
 H         3.334128         0.969422         2.491601
