19
Iteration:  1994charge 0 multiplicity 1
 C         4.232467        -1.721542         1.117495
 C         3.272252        -0.790591         0.484263
 O         2.003087        -1.473128         0.192056
 C         1.426354        -0.087902         0.081361
 C        -0.083383        -0.098996         0.512635
 C         2.016104         0.498115        -1.273904
 C         3.343524         0.360569        -0.571164
 C         2.793948         0.542718         0.771087
 O         3.096984         1.321667         1.823459
 H         4.213358        -2.693111         0.631633
 H         5.164557        -1.197865         0.892008
 H         3.881398        -1.711203         2.131661
 H        -0.165777         0.090038         1.651738
 H        -0.703804         0.705986         0.020564
 H        -0.379251        -1.169177         0.280174
 H         1.905319         0.004156        -2.231073
 H         1.778492         1.588983        -1.373938
 H         4.356703         0.510726        -0.958853
 H         3.107392         2.304121         1.672814
