19
Iteration:  1344charge 0 multiplicity 1
 C         4.287306        -1.783296         0.988948
 C         3.420341        -0.746035         0.391134
 O         2.229977        -1.386592         0.024179
 C         1.490595        -0.124428         0.117290
 C         0.032511        -0.126910         0.333563
 C         2.011843         0.634983        -1.185450
 C         3.483436         0.505237        -0.531232
 C         2.707799         0.512357         0.873075
 O         2.533773         1.127726         2.136841
 H         3.961472        -2.745363         0.530529
 H         5.286479        -1.871813         0.718988
 H         4.284946        -1.892187         2.053489
 H        -0.352026        -1.085180         0.527980
 H        -0.219913         0.558946         1.103850
 H        -0.303127         0.301179        -0.548865
 H         1.812754         0.149674        -2.184277
 H         1.739615         1.686051        -1.243997
 H         4.346112         0.943867        -1.093221
 H         2.786122         2.072123         2.144648
