19
Iteration:  3115charge 0 multiplicity 1
 C         4.324703        -1.699111         1.109573
 C         3.192541        -0.836200         0.605065
 O         1.886796        -1.445412         0.346883
 C         1.364075        -0.005562         0.066655
 C        -0.162956         0.010490         0.507951
 C         2.098941         0.270259        -1.299591
 C         3.419763         0.216008        -0.573429
 C         2.815013         0.546909         0.737900
 O         3.157877         1.454323         1.630960
 H         5.255229        -1.388144         0.749853
 H         4.522676        -1.455445         2.151997
 H         4.213200        -2.732693         0.987715
 H        -0.143853         0.392575         1.574541
 H        -0.840760         0.714850        -0.027973
 H        -0.365967        -1.047498         0.435824
 H         1.914816        -0.328221        -2.182753
 H         1.912620         1.251762        -1.717737
 H         4.469804         0.674431        -0.698446
 H         2.494461         2.183593         1.656163
