19
Iteration:  1134charge 0 multiplicity 1
 C         4.492470        -1.759427         0.848108
 C         3.376773        -0.843777         0.459087
 O         2.075096        -1.436614        -0.071930
 C         1.417064        -0.090076        -0.003219
 C        -0.010534         0.011938         0.278920
 C         2.181755         0.642912        -1.144763
 C         3.420012         0.526197        -0.361573
 C         2.662871         0.406627         0.974013
 O         2.575884         1.067688         2.177061
 H         4.109741        -2.562546         1.499728
 H         5.166536        -2.006527        -0.109821
 H         5.055973        -1.019425         1.540436
 H        -0.102462         0.469027         1.292198
 H        -0.521648         0.757474        -0.366132
 H        -0.582768        -0.916599         0.119244
 H         2.139307         0.020524        -2.066849
 H         1.733646         1.741558        -1.286672
 H         4.380839         1.076444        -0.475350
 H         2.483295         2.036471         1.995852
