19
Iteration:  2428charge 0 multiplicity 1
 C         4.400080        -1.641702         0.979059
 C         3.188023        -0.847708         0.584851
 O         1.906213        -1.537241         0.388701
 C         1.399416        -0.088110         0.073852
 C         0.024633         0.251882         0.626310
 C         2.029485         0.186100        -1.258896
 C         3.433036         0.261118        -0.670318
 C         2.771142         0.515406         0.731241
 O         2.998825         1.481655         1.659230
 H         4.437061        -2.033137         1.989096
 H         4.414091        -2.531555         0.281143
 H         5.284666        -1.107143         0.706802
 H         0.008680         0.092202         1.783501
 H        -0.305961         1.279790         0.273233
 H        -0.913590        -0.411877         0.438471
 H         1.766652        -0.578628        -1.998796
 H         1.921530         1.170039        -1.786969
 H         4.315691         0.598561        -1.247876
 H         2.411306         1.211672         2.426979
