19
Iteration:   890charge 0 multiplicity 1
 C         4.490324        -1.710331         0.717524
 C         3.278152        -0.872385         0.489985
 O         2.023397        -1.494939         0.008428
 C         1.514679        -0.104156         0.010641
 C        -0.045282        -0.121065         0.269946
 C         2.249345         0.649223        -1.152837
 C         3.458334         0.596641        -0.253367
 C         2.644671         0.406326         1.000289
 O         2.512658         1.243113         2.073653
 H         4.255239        -2.739128         1.180714
 H         5.034945        -1.810281        -0.198245
 H         5.107681        -1.142486         1.431424
 H        -0.286065        -0.897985         0.931575
 H        -0.360179         0.779842         0.711390
 H        -0.651599        -0.369612        -0.582169
 H         2.149530         0.015669        -2.119653
 H         1.973690         1.722134        -1.329554
 H         4.517903         1.098492        -0.180300
 H         3.352006         1.678451         2.286683
