19
Iteration:  2995charge 0 multiplicity 1
 C         4.302400        -1.667398         1.321565
 C         3.334881        -0.903022         0.436097
 O         1.968371        -1.508645         0.278991
 C         1.424375        -0.126261         0.114128
 C         0.082820         0.212794         0.742595
 C         1.914616         0.226046        -1.252391
 C         3.422661         0.239155        -0.720226
 C         2.793539         0.487812         0.634671
 O         2.952435         1.483231         1.528047
 H         4.817248        -1.043031         1.997321
 H         3.762204        -2.360922         2.002692
 H         5.000053        -2.175158         0.690305
 H        -0.014660        -0.390016         1.748908
 H         0.175170         1.309193         0.971207
 H        -0.841610         0.116161         0.152526
 H         1.870199        -0.404016        -2.176821
 H         1.679729         1.234104        -1.589508
 H         4.135468         0.901875        -1.183176
 H         2.154785         2.023046         1.569485
