19
Iteration:  1866
 C         4.392395        -1.698398         0.887936
 C         3.215787        -0.893769         0.591880
 O         1.958276        -1.461443         0.257082
 C         1.413698        -0.145777         0.029629
 C         0.083668         0.018742         0.557670
 C         2.159082         0.503491        -1.337334
 C         3.423318         0.333344        -0.497178
 C         2.731855         0.490773         0.800202
 O         2.768557         1.398831         1.875189
 H         4.915823        -1.582174         1.907734
 H         4.082632        -2.723466         0.862515
 H         5.118958        -1.670739        -0.003002
 H        -0.093875        -0.928237         1.123832
 H        -0.012876         0.762459         1.325757
 H        -0.846701         0.148380        -0.007144
 H         2.106474        -0.110073        -2.295823
 H         1.877462         1.542933        -1.597467
 H         4.468808         0.450650        -0.918153
 H         2.478895         2.252259         1.525276
