19
Iteration:  3397charge 0 multiplicity 1
 C         4.391506        -1.656665         0.904716
 C         3.224264        -0.831662         0.553467
 O         1.878987        -1.414704         0.401928
 C         1.389160        -0.119973         0.001770
 C        -0.013075         0.167901         0.415723
 C         2.163850         0.197101        -1.361323
 C         3.467269         0.351514        -0.613955
 C         2.791350         0.624067         0.765535
 O         2.866247         1.250766         2.030250
 H         4.483345        -2.487686         0.205735
 H         5.416980        -1.227476         0.830419
 H         4.205442        -2.051478         1.874377
 H        -0.218881         1.217449         0.850473
 H        -0.795411         0.092146        -0.388453
 H        -0.285994        -0.519467         1.193361
 H         2.170151        -0.524203        -2.160557
 H         1.763447         1.102781        -1.908123
 H         4.466213         0.498362        -0.891565
 H         2.663494         2.173845         1.929017
