19
Iteration:  1387charge 0 multiplicity 1
 C         4.400324        -1.495384         0.949943
 C         3.188571        -0.822031         0.498934
 O         1.990528        -1.483269        -0.027479
 C         1.381079        -0.153033        -0.089597
 C        -0.120216        -0.117099         0.294510
 C         2.269511         0.602368        -1.225923
 C         3.381196         0.496170        -0.311404
 C         2.624481         0.408071         0.950320
 O         2.951822         1.114275         2.090997
 H         5.017617        -1.881169         0.099795
 H         4.874939        -0.687304         1.480481
 H         4.262090        -2.223279         1.741980
 H        -0.346842        -1.083629         0.713315
 H        -0.330334         0.544752         1.113718
 H        -0.722679         0.034193        -0.560250
 H         2.273980         0.059385        -2.190795
 H         1.978744         1.650800        -1.276257
 H         4.439540         0.846228        -0.466825
 H         2.741111         2.043553         1.954829
