19
Iteration:  2924
 C         4.440538        -1.569763         1.019140
 C         3.213951        -0.883286         0.595357
 O         1.873841        -1.480516         0.421226
 C         1.363842        -0.061298         0.176629
 C        -0.128623         0.071337         0.557949
 C         2.025528         0.191511        -1.349205
 C         3.320408         0.184054        -0.646250
 C         2.788594         0.566523         0.688834
 O         3.143822         1.578726         1.653439
 H         5.015683        -1.031084         1.816631
 H         4.135738        -2.527802         1.487399
 H         5.125517        -1.666049         0.142756
 H        -0.405885        -0.181823         1.571418
 H        -0.604691         1.057624         0.271096
 H        -0.721778        -0.668376        -0.049376
 H         1.741947        -0.731031        -1.869777
 H         1.801130         1.084358        -1.966226
 H         4.387580         0.237817        -1.049080
 H         3.717492         1.318343         2.368106
