19
Iteration:  2107charge 0 multiplicity 1
 C         4.342640        -1.720817         1.080006
 C         3.340277        -0.841769         0.333833
 O         1.994215        -1.482293         0.319672
 C         1.412270        -0.120212         0.151856
 C         0.027997         0.182090         0.509066
 C         1.958128         0.234720        -1.217385
 C         3.335060         0.285784        -0.669668
 C         2.712450         0.567498         0.751289
 O         2.977882         1.402116         1.859190
 H         5.343954        -1.313555         1.035020
 H         4.179613        -1.971925         2.064727
 H         4.495420        -2.624637         0.508068
 H        -0.587394        -0.521222         1.064139
 H         0.079263         1.071911         1.171094
 H        -0.505008         0.513334        -0.409701
 H         1.686959        -0.533583        -1.939168
 H         1.676408         1.196328        -1.581082
 H         4.257032         0.514947        -1.222262
 H         3.043534         2.340788         1.610964
