19
Iteration:  2787charge 0 multiplicity 1
 C         4.311611        -1.564548         1.181807
 C         3.309934        -0.842839         0.385598
 O         2.086408        -1.519125         0.323633
 C         1.471390        -0.081610         0.105798
 C         0.027645         0.121232         0.615788
 C         1.813301         0.277675        -1.250553
 C         3.369723         0.135849        -0.778554
 C         2.753508         0.489582         0.773959
 O         2.969159         1.518873         1.647072
 H         5.391807        -1.626859         0.948752
 H         4.265439        -0.984506         2.172465
 H         3.955024        -2.600232         1.361066
 H        -0.040956        -0.384337         1.593361
 H         0.019596         1.154414         0.874704
 H        -0.729187        -0.112640        -0.111881
 H         1.435204        -0.395143        -2.030076
 H         1.420058         1.287617        -1.517720
 H         4.241973         0.646219        -1.303801
 H         3.240373         1.038254         2.488924
