19
Iteration:  3278
 C         4.166386        -1.883369         1.051041
 C         3.302496        -0.807835         0.481534
 O         2.052456        -1.369545         0.396238
 C         1.417952        -0.093447         0.130901
 C        -0.051774        -0.068094         0.419933
 C         2.026555         0.225438        -1.268479
 C         3.443393         0.261901        -0.607123
 C         2.702045         0.633393         0.794786
 O         3.093060         1.628522         1.757641
 H         5.052543        -1.587234         1.604219
 H         3.486888        -2.235986         1.863099
 H         4.268208        -2.666785         0.313548
 H        -0.294107        -0.859493         1.093962
 H        -0.355656         0.854789         0.907572
 H        -0.600120        -0.194305        -0.480068
 H         1.756591        -0.566631        -1.976996
 H         1.658142         1.159437        -1.706439
 H         4.353114         0.679844        -1.009754
 H         3.042446         2.510148         1.331434
