19
Iteration:  4964charge 0 multiplicity 1
 C         4.391953        -1.599811         0.943938
 C         3.228113        -0.802398         0.415424
 O         2.055085        -1.435199         0.074296
 C         1.440888        -0.105730         0.078341
 C        -0.036806         0.032405         0.294668
 C         2.109292         0.579147        -1.204800
 C         3.398615         0.481906        -0.517126
 C         2.642594         0.499743         0.900052
 O         2.813257         1.050313         2.101463
 H         4.677178        -2.538710         0.403408
 H         5.321888        -1.066022         1.099457
 H         4.147341        -2.131312         1.942496
 H        -0.558659        -0.645127        -0.370521
 H        -0.291138         0.087764         1.399684
 H        -0.251096         0.987426        -0.091301
 H         2.266620        -0.064226        -2.092661
 H         1.622102         1.513382        -1.352007
 H         4.342499         0.898527        -0.798470
 H         3.493932         0.533630         2.550581
