19
Iteration:   913
 C         4.601022        -1.524308         0.767547
 C         3.244396        -0.893040         0.556150
 O         2.027094        -1.456473        -0.074599
 C         1.418362        -0.112795        -0.047711
 C        -0.037711         0.008318         0.298251
 C         2.280468         0.627609        -1.126023
 C         3.428622         0.362219        -0.294749
 C         2.570785         0.333289         1.015986
 O         2.552003         1.170043         2.120043
 H         4.609020        -2.387285         1.502527
 H         4.967278        -1.812245        -0.228442
 H         5.219912        -0.707586         1.114297
 H        -0.389366        -0.938539         0.633551
 H        -0.223419         0.731506         1.046976
 H        -0.688602         0.040020        -0.564294
 H         2.291224         0.093473        -2.142550
 H         2.028215         1.739990        -1.268306
 H         4.523861         0.655723        -0.394882
 H         3.076061         1.981248         1.974608
