19
Iteration:  3410charge 0 multiplicity 1
 C         4.386451        -1.778907         0.924222
 C         3.205028        -0.793800         0.570216
 O         1.948859        -1.404159         0.338479
 C         1.470702         0.003595         0.015353
 C        -0.023154         0.097144         0.408621
 C         2.126704         0.296617        -1.327645
 C         3.411829         0.327468        -0.497651
 C         2.714250         0.514396         0.800513
 O         2.872782         1.317140         1.923115
 H         4.201790        -2.698303         0.365908
 H         5.276582        -1.244668         0.572430
 H         4.552075        -2.040249         1.961345
 H        -0.199777         1.127121         0.609325
 H        -0.676282        -0.333760        -0.370113
 H        -0.114923        -0.486089         1.277793
 H         2.043149        -0.632066        -1.893265
 H         1.860267         1.261245        -1.771697
 H         4.399547         0.589599        -0.951005
 H         2.773411         2.294191         1.728455
