19
Iteration:   402charge 0 multiplicity 1
 C         4.359550        -1.819786         0.758264
 C         3.232390        -0.803877         0.395307
 O         1.973170        -1.323477        -0.136106
 C         1.480889         0.020849        -0.094579
 C         0.026525        -0.067604         0.234287
 C         2.321228         0.811544        -1.108528
 C         3.517238         0.720522        -0.233438
 C         2.621214         0.434549         0.984671
 O         2.649718         0.745362         2.326418
 H         3.979195        -2.571730         1.465217
 H         4.684294        -2.438008        -0.136525
 H         5.138441        -1.234724         1.134587
 H        -0.649419         0.695058        -0.204147
 H        -0.387572        -0.982933        -0.260876
 H         0.030129        -0.017802         1.329958
 H         2.559579         0.324373        -2.206307
 H         1.853139         1.763655        -1.111329
 H         4.622265         0.972163        -0.400865
 H         2.256422         1.618967         2.546241
