19
Iteration:  4908
 C         4.483011        -1.559302         0.731771
 C         3.201057        -0.810133         0.506644
 O         1.959329        -1.513533         0.123439
 C         1.434266        -0.073472        -0.005111
 C        -0.063929         0.130338         0.285903
 C         2.126540         0.452988        -1.216383
 C         3.489902         0.454206        -0.363086
 C         2.664641         0.452992         0.905689
 O         2.852407         1.106258         2.120579
 H         5.385941        -1.373049         0.092708
 H         4.828685        -1.013859         1.685242
 H         4.262595        -2.599418         1.168270
 H        -0.706606        -0.706627        -0.056682
 H        -0.285296         0.183494         1.398834
 H        -0.385251         0.947090        -0.317573
 H         1.969881        -0.035196        -2.211000
 H         1.866061         1.466307        -1.512225
 H         4.518218         0.833291        -0.640622
 H         2.298398         0.677273         2.775576
