19
Iteration:  4180
 C         4.294065        -1.636995         1.097724
 C         3.288258        -0.910834         0.404148
 O         2.062086        -1.510677         0.018456
 C         1.389772        -0.037944         0.032442
 C        -0.037984        -0.020882         0.521386
 C         2.075571         0.546136        -1.210018
 C         3.469324         0.361568        -0.469670
 C         2.736879         0.400503         0.851407
 O         2.827584         1.332577         1.907833
 H         5.022278        -1.919569         0.325830
 H         4.856891        -1.033563         1.870138
 H         3.742266        -2.541537         1.446847
 H        -0.374391        -1.019254         0.909494
 H        -0.111520         0.611774         1.434995
 H        -0.729913         0.236321        -0.230798
 H         2.001334        -0.106103        -2.105750
 H         1.936578         1.640480        -1.504821
 H         4.360709         0.864701        -0.857863
 H         3.236488         2.132008         1.586033
