19
Iteration:  4282charge 0 multiplicity 1
 C         4.372559        -1.689868         0.911426
 C         3.282095        -0.781749         0.474705
 O         2.011258        -1.454785         0.205806
 C         1.388435        -0.125729         0.098692
 C        -0.059144        -0.050025         0.374301
 C         2.197803         0.515140        -1.249994
 C         3.396054         0.399894        -0.477850
 C         2.723879         0.494438         0.852364
 O         2.845549         1.257411         1.955350
 H         4.104915        -2.833917         0.846834
 H         5.301481        -1.405296         0.393733
 H         4.522524        -1.520621         2.009631
 H        -0.645447        -0.654951        -0.251851
 H        -0.206059        -0.259625         1.414315
 H        -0.372740         1.021351         0.324688
 H         2.081372        -0.275699        -2.037191
 H         1.915556         1.584255        -1.569111
 H         4.426619         0.719606        -0.810157
 H         2.311804         2.074600         1.729955
