19
Iteration:  4610charge 0 multiplicity 1
 C         4.449151        -1.696365         0.752165
 C         3.260934        -0.821450         0.566752
 O         2.021162        -1.459918         0.241826
 C         1.423033        -0.186627         0.019864
 C        -0.059296        -0.023818         0.211934
 C         2.141891         0.486261        -1.244695
 C         3.329601         0.422624        -0.364807
 C         2.665161         0.522591         0.942600
 O         2.845924         1.360607         2.030436
 H         4.913805        -2.012940        -0.198110
 H         5.288564        -1.177469         1.287323
 H         4.079705        -2.650546         1.058481
 H        -0.521766        -0.199263        -0.771099
 H        -0.490831        -0.561593         1.011902
 H        -0.233890         1.116939         0.330693
 H         2.235885        -0.008731        -2.180905
 H         1.729231         1.489017        -1.398769
 H         4.378002         0.826471        -0.491834
 H         2.984967         0.772892         2.829143
