19
Iteration:  4503
 C         4.171035        -1.814677         1.134926
 C         3.342516        -0.796667         0.379113
 O         2.093071        -1.410999        -0.060725
 C         1.488267        -0.055720         0.038758
 C         0.066131        -0.171579         0.564855
 C         2.088575         0.560576        -1.305440
 C         3.420079         0.468683        -0.449345
 C         2.642580         0.497185         0.831510
 O         2.773836         1.364592         1.919362
 H         4.124057        -2.649297         0.491604
 H         5.261102        -1.423113         1.023717
 H         4.036362        -1.847508         2.186532
 H        -0.482760        -1.061078         0.217354
 H         0.175288        -0.368369         1.619103
 H        -0.542103         0.778231         0.524175
 H         1.934097        -0.057120        -2.265528
 H         2.041362         1.616938        -1.517699
 H         4.382412         0.986039        -0.582412
 H         3.332947         0.963999         2.644879
