19
Iteration:   310charge 0 multiplicity 1
 C         4.454388        -1.649152         0.798314
 C         3.155930        -0.897962         0.443778
 O         1.962411        -1.325873        -0.289873
 C         1.447609         0.012691        -0.048251
 C        -0.114775        -0.053163         0.099824
 C         2.306841         0.801415        -1.072334
 C         3.517246         0.491783        -0.165630
 C         2.635812         0.326694         1.058754
 O         2.692723         0.860994         2.335661
 H         4.310728        -2.403772         1.541954
 H         4.869970        -2.079683        -0.100198
 H         5.038386        -0.772740         1.206345
 H        -0.288228         0.818400         0.733637
 H        -0.474230         0.079237        -0.867848
 H        -0.191621        -0.963348         0.670615
 H         2.443509         0.453071        -2.133629
 H         1.902586         1.897898        -1.071058
 H         4.502357         0.877395        -0.125325
 H         3.319886         1.569656         2.468869
