19
Iteration:   710charge 0 multiplicity 1
 C         4.373402        -1.754037         0.749319
 C         3.198743        -0.865020         0.415969
 O         2.023651        -1.337732        -0.153275
 C         1.460460         0.007560         0.063144
 C        -0.003336        -0.283894         0.238287
 C         2.271152         0.777827        -1.163439
 C         3.485305         0.623357        -0.205626
 C         2.668888         0.364781         0.984737
 O         2.699616         1.141719         2.242237
 H         4.101899        -2.593579         1.473689
 H         5.078412        -2.174574        -0.082431
 H         5.291427        -1.226283         1.242205
 H        -0.586443         0.394402        -0.450098
 H        -0.358194        -1.308155        -0.027073
 H        -0.286224        -0.082790         1.292636
 H         2.210841         0.102980        -2.150670
 H         1.980220         1.833123        -1.414018
 H         4.550382         0.928639        -0.314198
 H         1.755065         1.261742         2.450094
