19
Iteration:  1394
 C         4.424190        -1.435063         0.934836
 C         3.156482        -0.830250         0.502620
 O         1.967763        -1.464696        -0.032977
 C         1.334073        -0.113319        -0.091243
 C        -0.108225        -0.134824         0.246821
 C         2.259198         0.530615        -1.201805
 C         3.424938         0.439822        -0.329563
 C         2.605437         0.439487         0.956331
 O         2.966628         1.101999         2.127361
 H         5.177629        -1.637674         0.198477
 H         5.084307        -0.783497         1.618675
 H         4.316320        -2.367399         1.563122
 H        -0.149546        -1.159041         0.754830
 H        -0.212963         0.716528         0.991924
 H        -0.902031         0.123538        -0.565844
 H         2.196974         0.146984        -2.199758
 H         1.847965         1.586398        -1.245946
 H         4.404532         0.793811        -0.416504
 H         2.895118         2.053161         2.002433
