19
Iteration:  3685charge 0 multiplicity 1
 C         4.329329        -1.780372         0.893440
 C         3.278878        -0.863156         0.559959
 O         1.962572        -1.420733         0.010016
 C         1.386686        -0.047625         0.113039
 C        -0.079479        -0.106233         0.202431
 C         2.072502         0.584725        -1.195261
 C         3.348812         0.509970        -0.366591
 C         2.763393         0.449271         0.974091
 O         3.018857         1.254331         2.057940
 H         5.022823        -1.748974         0.037873
 H         4.768216        -1.596892         1.834699
 H         3.848129        -2.746246         0.950783
 H        -0.331873         0.782470         0.741804
 H        -0.483956        -0.094642        -0.834654
 H        -0.345564        -1.089874         0.749195
 H         2.020060        -0.016540        -2.125546
 H         1.789913         1.607243        -1.382349
 H         4.343825         0.874128        -0.521408
 H         3.232095         2.172358         1.726859
