19
Iteration:   709
 C         4.368659        -1.755100         0.750161
 C         3.208364        -0.872258         0.420548
 O         2.024363        -1.340991        -0.155054
 C         1.454976         0.005026         0.068683
 C        -0.001747        -0.284248         0.235947
 C         2.271941         0.785864        -1.166114
 C         3.481216         0.622208        -0.201987
 C         2.669812         0.356720         0.988459
 O         2.701197         1.147319         2.234460
 H         4.102196        -2.587188         1.483265
 H         5.081122        -2.165432        -0.109693
 H         5.266129        -1.208152         1.249876
 H        -0.585399         0.407996        -0.455535
 H        -0.341496        -1.333139        -0.019492
 H        -0.285800        -0.058085         1.312135
 H         2.205108         0.120343        -2.173254
 H         1.986849         1.880401        -1.390249
 H         4.543766         0.935478        -0.314664
 H         1.745111         1.253450         2.430871
