19
Iteration:  3015
 C         4.361023        -1.638360         1.099167
 C         3.205911        -0.884184         0.528960
 O         1.943773        -1.467839         0.341533
 C         1.451978        -0.130935         0.087069
 C         0.096811         0.225578         0.707359
 C         2.059026         0.194411        -1.402729
 C         3.336964         0.158405        -0.597478
 C         2.759075         0.501914         0.750725
 O         2.944780         1.575822         1.550329
 H         5.058595        -0.998448         1.562591
 H         3.956225        -2.160370         1.935520
 H         4.900718        -2.308746         0.493898
 H         0.107105        -0.364764         1.663767
 H        -0.111101         1.285634         0.715433
 H        -0.693227        -0.244457         0.114629
 H         1.640473        -0.585785        -1.994077
 H         1.845698         1.202059        -1.743061
 H         4.340825         0.226415        -0.902823
 H         2.258943         1.546244         2.222345
