19
Iteration:  2195charge 0 multiplicity 1
 C         4.478540        -1.648140         1.119436
 C         3.266813        -0.876661         0.471245
 O         1.843479        -1.481505         0.293095
 C         1.440729        -0.139232         0.206508
 C        -0.032063         0.186606         0.455848
 C         1.863362         0.307011        -1.216121
 C         3.314234         0.242979        -0.615585
 C         2.784709         0.472851         0.766785
 O         3.114055         1.404026         1.736961
 H         4.662792        -1.545596         2.181882
 H         4.262978        -2.670436         0.789841
 H         5.361292        -1.412628         0.508756
 H        -0.423840        -0.078483         1.452327
 H        -0.251641         1.290327         0.233205
 H        -0.527529        -0.355265        -0.404157
 H         1.566689        -0.253076        -2.126634
 H         1.573112         1.326714        -1.340098
 H         4.316159         0.677782        -0.878074
 H         3.509890         2.149288         1.278290
