19
Iteration:  2273charge 0 multiplicity 1
 C         4.368187        -1.777660         0.911534
 C         3.193948        -0.932462         0.564427
 O         1.858135        -1.504093         0.371996
 C         1.483454        -0.078109         0.143237
 C         0.028432         0.259724         0.718387
 C         2.084523         0.230468        -1.278857
 C         3.446681         0.300073        -0.663503
 C         2.816902         0.492196         0.721954
 O         2.927834         1.524129         1.651123
 H         4.104045        -2.639288         1.499750
 H         5.003268        -2.226101         0.125599
 H         5.018595        -1.196373         1.591170
 H        -0.032731         0.488737         1.822256
 H        -0.479389         1.142084         0.192459
 H        -0.551719        -0.668284         0.527569
 H         1.764235        -0.366779        -2.142289
 H         1.785076         1.250394        -1.461496
 H         4.439419         0.448386        -1.076077
 H         2.078416         1.957878         1.571807
