19
Iteration:  4789
 C         4.440143        -1.641619         0.854774
 C         3.298263        -0.841037         0.399137
 O         2.041289        -1.517918         0.088497
 C         1.432347        -0.099366         0.030824
 C        -0.053617         0.068072         0.235312
 C         2.089859         0.487051        -1.202933
 C         3.388927         0.480823        -0.355096
 C         2.679040         0.467337         0.926956
 O         2.805293         1.238804         2.127486
 H         4.454703        -2.610266         0.293080
 H         5.425318        -1.192743         0.513828
 H         4.641850        -1.660760         1.964470
 H        -0.664863         0.278635        -0.675761
 H        -0.417069        -0.979053         0.591986
 H        -0.211508         0.910950         0.901979
 H         2.080584        -0.003447        -2.173410
 H         1.815151         1.522932        -1.388908
 H         4.374497         0.872220        -0.604826
 H         2.422062         0.712167         2.886202
