19
Iteration:  2348
 C         4.325542        -1.627604         1.048781
 C         3.185721        -0.834917         0.531179
 O         1.875304        -1.424831         0.422923
 C         1.412781         0.012246         0.040575
 C        -0.067025         0.047780         0.552789
 C         2.015132         0.237075        -1.374409
 C         3.326752         0.166650        -0.666892
 C         2.711255         0.540004         0.806657
 O         3.219006         1.534114         1.714969
 H         4.191605        -1.974972         2.021759
 H         4.258797        -2.517371         0.498265
 H         5.364214        -1.356393         0.952446
 H         0.015409        -0.789769         1.241524
 H        -0.460190         0.925734         1.107036
 H        -0.684057        -0.375115        -0.231433
 H         2.024430        -0.462454        -2.226270
 H         1.746218         1.216920        -1.669510
 H         4.189089         0.695776        -1.033496
 H         3.689966         0.851532         2.295600
