19
Iteration:   224charge 0 multiplicity 1
 C         4.380501        -1.785566         0.753524
 C         3.267609        -0.890757         0.317115
 O         2.001801        -1.310116        -0.298963
 C         1.474893         0.067704         0.022149
 C         0.088464        -0.043898         0.304699
 C         2.344188         0.776829        -1.087484
 C         3.546168         0.525766        -0.141662
 C         2.612184         0.362816         1.024580
 O         2.512866         0.947124         2.251316
 H         4.290864        -2.493509         1.583783
 H         4.962563        -2.254948        -0.064326
 H         5.229004        -1.061000         1.110332
 H        -0.364214         0.956193         0.651327
 H        -0.643658        -0.413820        -0.463425
 H        -0.268144        -0.766580         1.127523
 H         2.302637         0.393293        -2.204445
 H         2.255890         1.841726        -1.120611
 H         4.589225         0.779217        -0.301690
 H         1.603465         1.109563         2.553009
