19
Iteration:   670charge 0 multiplicity 1
 C         4.442281        -1.859134         0.819381
 C         3.349545        -0.846224         0.408611
 O         2.141721        -1.454022        -0.187968
 C         1.517888        -0.171176         0.031243
 C        -0.060235        -0.060121         0.188665
 C         2.103320         0.867070        -0.974491
 C         3.451693         0.556152        -0.201821
 C         2.656669         0.328732         1.000552
 O         2.576041         1.224790         2.046132
 H         4.045901        -2.655138         1.409825
 H         4.886683        -2.299615        -0.010662
 H         5.177013        -1.212001         1.297866
 H        -0.528195         0.370825        -0.712039
 H        -0.621231        -0.967042         0.382614
 H        -0.203492         0.484900         1.130944
 H         1.918106         0.793966        -1.993160
 H         1.879972         1.911057        -0.723370
 H         4.373325         1.151003        -0.240399
 H         2.818689         0.743530         2.880996
