19
Iteration:  4390charge 0 multiplicity 1
 C         4.496857        -1.561198         0.889773
 C         3.269812        -0.871490         0.471699
 O         1.956472        -1.432860         0.251769
 C         1.434031        -0.070670         0.036372
 C        -0.042430         0.100569         0.380152
 C         2.104130         0.336814        -1.230401
 C         3.420259         0.351477        -0.500919
 C         2.653428         0.470120         0.819875
 O         2.805281         1.288322         1.958827
 H         5.089712        -1.985588         0.016338
 H         5.229579        -0.898858         1.228822
 H         4.299160        -2.215504         1.754096
 H        -0.728339         0.086057        -0.478602
 H        -0.356019        -0.761325         1.020768
 H        -0.061608         1.170819         0.796710
 H         2.032353        -0.433810        -1.971409
 H         1.748972         1.259669        -1.761929
 H         4.450047         0.843302        -0.631172
 H         2.835027         0.623442         2.687744
