19
Iteration:  3793
 C         4.207212        -1.747261         1.025795
 C         3.291393        -0.862612         0.463218
 O         2.080001        -1.409757        -0.119280
 C         1.474080        -0.048167        -0.036955
 C         0.160238        -0.002207         0.544053
 C         2.088205         0.658243        -1.266190
 C         3.439320         0.528981        -0.407857
 C         2.676985         0.438420         0.797689
 O         2.759590         1.057491         2.061217
 H         3.714199        -2.770470         1.273509
 H         5.136860        -1.979754         0.545862
 H         4.499187        -1.417762         2.065059
 H        -0.585940         0.448894        -0.025094
 H        -0.244666        -1.018332         0.570325
 H         0.088981         0.357645         1.630750
 H         1.976411        -0.006891        -2.167011
 H         1.629765         1.635207        -1.434882
 H         4.382497         1.168117        -0.603516
 H         2.689973         2.069224         2.053706
