19
Iteration:  1460
 C         4.366975        -1.697433         0.934070
 C         3.330194        -0.729333         0.475645
 O         2.157419        -1.447603         0.106671
 C         1.471931        -0.143969         0.034356
 C        -0.008920        -0.067626         0.301513
 C         2.077776         0.516173        -1.280041
 C         3.347971         0.525377        -0.466818
 C         2.617540         0.468234         0.893241
 O         2.794455         1.162139         2.149280
 H         5.387398        -1.386230         1.106168
 H         3.962608        -2.387202         1.791183
 H         4.351114        -2.452145         0.098090
 H        -0.154000         0.056532         1.415699
 H        -0.361569         0.904891        -0.180062
 H        -0.523320        -0.910276        -0.288318
 H         2.161051         0.080306        -2.267554
 H         1.631028         1.561384        -1.264679
 H         4.263937         1.026616        -0.797043
 H         2.383063         2.051414         2.025098
