19
Iteration:  3889charge 0 multiplicity 1
 C         4.465728        -1.664662         0.694329
 C         3.251197        -0.759309         0.513354
 O         1.945572        -1.461096         0.245365
 C         1.341914        -0.119708        -0.010673
 C        -0.161473         0.023710         0.044087
 C         2.178996         0.438310        -1.155469
 C         3.447236         0.474896        -0.460799
 C         2.804312         0.561460         1.037754
 O         2.880041         1.126394         2.299479
 H         4.604785        -1.901855         1.785633
 H         4.292539        -2.537787         0.152499
 H         5.374836        -1.267208         0.244107
 H        -0.292363         1.086706        -0.014390
 H        -0.538752        -0.356897        -0.936741
 H        -0.578978        -0.436236         0.951860
 H         2.217916        -0.364588        -1.890102
 H         1.535936         1.214292        -1.609039
 H         4.389654         0.836914        -0.964395
 H         2.617039         2.061215         2.066785
