19
Iteration:  4405charge 0 multiplicity 1
 C         4.553986        -1.541598         0.814702
 C         3.238711        -0.787027         0.509561
 O         1.902668        -1.524956         0.326922
 C         1.374074        -0.169999         0.069201
 C        -0.014924         0.157879         0.292035
 C         2.160817         0.334344        -1.338310
 C         3.355279         0.443974        -0.392378
 C         2.642721         0.420125         0.909543
 O         2.911367         1.262090         1.918597
 H         4.915574        -1.872815        -0.157641
 H         5.209556        -0.788182         1.424829
 H         4.452710        -2.443866         1.440829
 H        -0.576617        -0.097355        -0.589924
 H        -0.371991        -0.367795         1.119922
 H        -0.178107         1.158786         0.647309
 H         2.127923        -0.387534        -2.258446
 H         1.809753         1.345082        -1.506671
 H         4.278766         0.752746        -0.709280
 H         2.344359         1.051077         2.722275
