19
Iteration:  1191
 C         4.327255        -1.642498         1.105445
 C         3.267700        -0.777685         0.423921
 O         2.040079        -1.367335        -0.186892
 C         1.376314        -0.030940        -0.096985
 C        -0.057286        -0.252874         0.304885
 C         2.180455         0.772139        -1.211012
 C         3.428172         0.616339        -0.325454
 C         2.637540         0.420760         0.916159
 O         2.874610         0.944302         2.191278
 H         4.191540        -1.785646         2.240525
 H         4.403199        -2.662998         0.592291
 H         5.284255        -1.111478         0.860432
 H        -0.312649        -0.127092         1.359396
 H        -0.741520         0.274896        -0.403140
 H        -0.164656        -1.349897         0.172145
 H         2.262513         0.179573        -2.166959
 H         1.633222         1.748903        -1.410145
 H         4.437997         0.941811        -0.378303
 H         3.213825         1.834735         2.084488
