19
Iteration:  1151charge 0 multiplicity 1
 C         4.430321        -1.639976         0.989685
 C         3.313155        -0.893968         0.358296
 O         2.153717        -1.465254        -0.119927
 C         1.525841        -0.139720         0.071461
 C        -0.004527         0.018471         0.257152
 C         2.002460         0.745747        -1.071160
 C         3.471671         0.518125        -0.391647
 C         2.661943         0.348958         0.952451
 O         2.608373         1.047473         2.113414
 H         3.986768        -2.290269         1.752434
 H         4.776889        -2.253414         0.251237
 H         5.242229        -1.201965         1.468331
 H        -0.342568         0.486272         1.178901
 H        -0.406352         0.692539        -0.509594
 H        -0.410853        -0.978240         0.035829
 H         1.814025         0.590175        -2.140638
 H         1.826384         1.701327        -0.785884
 H         4.455270         0.871690        -0.639708
 H         2.819849         2.000147         1.925595
