19
Iteration:  2886charge 0 multiplicity 1
 C         4.478864        -1.715634         0.844822
 C         3.282887        -0.807364         0.485099
 O         1.978975        -1.508202         0.623382
 C         1.380952        -0.132328         0.264504
 C        -0.117832         0.157432         0.407138
 C         1.998647         0.192139        -1.251897
 C         3.325988         0.238158        -0.665842
 C         2.738049         0.530258         0.790753
 O         3.078483         1.566453         1.662163
 H         5.284945        -1.233133         1.415230
 H         3.979207        -2.425450         1.545510
 H         4.895688        -2.379203         0.077889
 H        -0.455685         0.666591         1.332036
 H        -0.236117         0.954657        -0.294447
 H        -0.663925        -0.700700         0.085849
 H         1.915572        -0.583437        -2.056961
 H         1.628720         1.159960        -1.640123
 H         4.284875         0.585097        -0.973453
 H         2.173303         1.915843         1.884506
