19
Iteration:  1664
 C         4.323642        -1.724023         0.973578
 C         3.274559        -0.826278         0.504430
 O         1.995163        -1.404018         0.148857
 C         1.465241        -0.157685         0.081778
 C        -0.009037        -0.122022         0.532691
 C         2.183090         0.446406        -1.344545
 C         3.442445         0.540012        -0.500009
 C         2.724082         0.535504         0.785792
 O         2.839495         1.342466         1.901064
 H         3.828687        -2.685761         1.107386
 H         5.345485        -1.788904         0.376537
 H         4.600953        -1.461878         2.032882
 H        -0.715724        -0.869118         0.068554
 H        -0.098325        -0.550548         1.592382
 H        -0.541478         0.894406         0.496466
 H         2.013413        -0.341939        -2.117739
 H         1.828477         1.493890        -1.582860
 H         4.414968         0.960738        -0.879632
 H         1.895644         1.479220         2.125915
