19
Iteration:  3141
 C         4.222342        -1.606647         1.274124
 C         3.242313        -0.862045         0.474419
 O         1.889815        -1.448338         0.241662
 C         1.442545        -0.086783         0.022715
 C         0.095863         0.065106         0.620444
 C         1.989529         0.293359        -1.376184
 C         3.399332         0.136707        -0.698459
 C         2.745759         0.492792         0.788094
 O         3.072355         1.467121         1.748591
 H         5.210936        -1.094802         1.163826
 H         4.054975        -1.463856         2.350664
 H         4.372675        -2.685710         1.048063
 H         0.310590         0.151312         1.660068
 H        -0.331300         1.055399         0.406833
 H        -0.497930        -0.849230         0.354995
 H         1.643204        -0.238850        -2.277450
 H         1.805163         1.317943        -1.700192
 H         4.337560         0.414023        -1.072220
 H         2.815898         2.340045         1.381142
