19
Iteration:  3590
 C         4.400597        -1.559420         0.910744
 C         3.251500        -0.838111         0.452449
 O         1.990811        -1.505361         0.105496
 C         1.433375        -0.060552         0.045192
 C        -0.017394         0.249169         0.467004
 C         2.175339         0.424144        -1.275276
 C         3.424957         0.383535        -0.457194
 C         2.692884         0.509816         0.816928
 O         2.760754         1.002746         2.042291
 H         5.011997        -1.134184         1.752083
 H         4.190364        -2.660036         1.163910
 H         5.203851        -1.735334         0.120203
 H        -0.109375        -0.125188         1.499660
 H        -0.243151         1.302240         0.545978
 H        -0.745562        -0.328071        -0.171826
 H         2.017348        -0.215174        -2.190852
 H         1.817847         1.473163        -1.383109
 H         4.429564         0.615747        -0.803413
 H         2.827783         1.973037         2.013991
