19
Iteration:  2442
 C         4.344004        -1.710085         0.950979
 C         3.183419        -0.926665         0.514807
 O         1.892264        -1.439423         0.360043
 C         1.448166        -0.013509         0.109687
 C         0.097447         0.152258         0.743690
 C         2.067586         0.207358        -1.393549
 C         3.372294         0.226276        -0.548868
 C         2.733041         0.517066         0.701811
 O         2.970849         1.550614         1.614959
 H         4.179117        -2.070394         2.037848
 H         4.612264        -2.569684         0.291700
 H         5.254937        -1.041370         1.063515
 H         0.256240         0.187378         1.819287
 H        -0.323899         1.103600         0.461626
 H        -0.385863        -0.743563         0.315566
 H         2.004722        -0.671029        -2.047090
 H         1.579241         1.107045        -1.780525
 H         4.419398         0.471781        -0.653622
 H         2.407795         1.464826         2.366433
