19
Iteration:  4023
 C         4.294958        -1.707912         0.973082
 C         3.246401        -0.775458         0.482578
 O         2.034076        -1.346302         0.107703
 C         1.384822        -0.113955        -0.020015
 C        -0.014448        -0.049730         0.371999
 C         2.112422         0.482254        -1.193534
 C         3.426429         0.439261        -0.463298
 C         2.695242         0.510566         0.866528
 O         2.925828         1.156880         2.022288
 H         4.119923        -2.757247         0.880604
 H         5.160061        -1.446639         0.343236
 H         4.592580        -1.514782         1.985447
 H        -0.249909         0.415538         1.285707
 H        -0.586193         0.347026        -0.448509
 H        -0.319561        -1.121063         0.456659
 H         1.993337        -0.297289        -2.001168
 H         1.724398         1.438259        -1.490874
 H         4.345662         0.836755        -0.785768
 H         2.880412         2.149762         1.918694
