19
Iteration:  1964
 C         4.397648        -1.596719         1.088086
 C         3.210774        -0.900892         0.492582
 O         1.840239        -1.409300         0.118879
 C         1.386227         0.015879         0.077490
 C        -0.093580        -0.100642         0.449634
 C         2.077782         0.460356        -1.265186
 C         3.341504         0.266197        -0.574682
 C         2.785872         0.523623         0.840583
 O         3.135913         1.262662         1.900724
 H         4.375073        -2.704670         1.330860
 H         5.197271        -1.373259         0.461588
 H         4.615970        -0.960918         2.021210
 H        -0.337075         0.189457         1.507561
 H        -0.851404         0.515608        -0.004928
 H        -0.385807        -1.134567         0.385851
 H         1.919041        -0.238290        -2.095899
 H         1.972630         1.463953        -1.643607
 H         4.273741         0.815358        -0.825865
 H         3.095229         2.195334         1.673113
