19
Iteration:  4026
 C         4.319354        -1.713461         0.969595
 C         3.248994        -0.786441         0.501817
 O         2.022382        -1.339686         0.104438
 C         1.391482        -0.127371         0.025747
 C        -0.015913        -0.043427         0.323338
 C         2.109646         0.465236        -1.182141
 C         3.422006         0.434974        -0.468616
 C         2.698013         0.528055         0.886919
 O         2.927816         1.144109         2.011407
 H         4.124880        -2.777781         0.799365
 H         5.176487        -1.267573         0.282782
 H         4.678086        -1.472335         1.998437
 H        -0.312349         0.453600         1.260555
 H        -0.627269         0.421192        -0.424894
 H        -0.413846        -0.999284         0.437725
 H         1.929911        -0.328831        -1.971676
 H         1.779827         1.474076        -1.513055
 H         4.317294         0.871902        -0.859341
 H         2.831019         2.100259         1.890143
