19
Iteration:    84
 C         4.475700        -1.820379         0.789997
 C         3.335313        -0.943668         0.317544
 O         2.093408        -1.347949        -0.265222
 C         1.468463        -0.021275         0.025401
 C         0.042154         0.143997         0.164068
 C         2.137976         0.816634        -1.023267
 C         3.469803         0.437320        -0.232539
 C         2.572412         0.222301         1.071762
 O         2.597645         1.066552         2.236637
 H         4.125638        -2.453835         1.599997
 H         4.992577        -2.380568        -0.005736
 H         5.334496        -1.107450         1.161956
 H        -0.182259         1.202468         0.521666
 H        -0.511450        -0.038968        -0.797308
 H        -0.456109        -0.500021         0.965507
 H         1.963511         0.479749        -2.145828
 H         1.982094         1.974976        -0.788350
 H         4.407223         1.021093         0.025982
 H         2.030498         0.718168         2.983782
