19
Iteration:  1998
 C         4.230428        -1.728487         1.089177
 C         3.259473        -0.801725         0.491168
 O         2.026091        -1.489599         0.213705
 C         1.404606        -0.105061         0.079641
 C        -0.082013        -0.090572         0.521661
 C         2.016245         0.496891        -1.259694
 C         3.349706         0.383037        -0.611290
 C         2.809170         0.551038         0.757153
 O         3.078896         1.339087         1.842158
 H         4.195805        -2.725163         0.604035
 H         5.220804        -1.276653         1.139085
 H         3.825020        -1.814239         2.115922
 H        -0.101602         0.077054         1.574856
 H        -0.520558         0.717084        -0.023241
 H        -0.567943        -1.031187         0.258633
 H         2.002476        -0.042141        -2.217991
 H         1.724435         1.527750        -1.345776
 H         4.306470         0.679312        -1.033758
 H         3.158097         2.273016         1.647432
