19
Iteration:  2347charge 0 multiplicity 1
 C         4.319707        -1.632981         1.047185
 C         3.182723        -0.835502         0.532957
 O         1.874412        -1.418478         0.415518
 C         1.411089         0.011494         0.036805
 C        -0.062335         0.041938         0.564369
 C         2.012383         0.236042        -1.363802
 C         3.337152         0.177270        -0.664257
 C         2.714276         0.533449         0.804178
 O         3.216816         1.533743         1.703665
 H         4.145659        -2.000903         2.030623
 H         4.249772        -2.532625         0.521787
 H         5.372941        -1.317372         0.973572
 H         0.018696        -0.777506         1.228720
 H        -0.450003         0.903005         1.110083
 H        -0.637378        -0.383273        -0.235716
 H         2.011842        -0.462534        -2.222684
 H         1.727021         1.225349        -1.664281
 H         4.220973         0.681473        -1.034590
 H         3.667226         0.896812         2.321876
