19
Iteration:  2103charge 0 multiplicity 1
 C         4.381394        -1.672498         1.052286
 C         3.299683        -0.882732         0.368850
 O         1.990033        -1.481987         0.331003
 C         1.409547        -0.115576         0.133531
 C         0.020209         0.222256         0.507785
 C         1.985333         0.223237        -1.194354
 C         3.327946         0.299227        -0.648799
 C         2.743474         0.530546         0.717358
 O         2.955677         1.388642         1.845503
 H         5.428270        -1.286666         0.842468
 H         4.203878        -2.028942         2.135817
 H         4.412491        -2.682511         0.551844
 H        -0.513220        -0.614814         1.101366
 H        -0.000217         1.119782         1.147650
 H        -0.510318         0.566764        -0.418755
 H         1.735841        -0.508377        -1.975438
 H         1.637587         1.289448        -1.461261
 H         4.261749         0.493365        -1.145605
 H         2.970663         2.328840         1.589008
