19
Iteration:   910
 C         4.582493        -1.526218         0.739784
 C         3.241225        -0.937211         0.555374
 O         2.042298        -1.451352        -0.065628
 C         1.367596        -0.088019        -0.039389
 C        -0.049750        -0.023399         0.308886
 C         2.293655         0.623523        -1.139246
 C         3.451617         0.380745        -0.256645
 C         2.587609         0.352501         0.993839
 O         2.540349         1.186856         2.118528
 H         4.650246        -2.455230         1.469712
 H         4.981936        -1.813833        -0.215337
 H         5.240464        -0.741017         1.223899
 H        -0.298383        -0.987662         0.724750
 H        -0.266987         0.797081         0.979961
 H        -0.632134         0.094211        -0.624263
 H         2.361354         0.150504        -2.223931
 H         1.937534         1.645922        -1.240227
 H         4.571753         0.667683        -0.415481
 H         3.187424         1.921290         1.957671
