19
Iteration:   654charge 0 multiplicity 1
 C         4.440839        -1.790470         0.791880
 C         3.358801        -0.916263         0.348880
 O         2.165491        -1.413503        -0.159073
 C         1.428727        -0.041177         0.058146
 C        -0.003535        -0.021702         0.216095
 C         2.160833         0.760910        -1.046851
 C         3.415420         0.640790        -0.303183
 C         2.673321         0.269676         1.057653
 O         2.505961         1.138818         2.172487
 H         3.943120        -2.508540         1.531300
 H         4.802525        -2.426832        -0.125909
 H         5.218900        -1.307946         1.423796
 H        -0.360063         0.308841        -0.773817
 H        -0.294122        -1.052969         0.502625
 H        -0.353275         0.829568         0.786548
 H         2.139986         0.276006        -2.101012
 H         1.623545         1.719393        -0.973018
 H         4.369027         1.137841        -0.382260
 H         3.234379         1.037273         2.851703
