19
Iteration:  4214charge 0 multiplicity 1
 C         4.477519        -1.605815         0.892457
 C         3.254547        -0.814802         0.515981
 O         1.930409        -1.506305         0.289911
 C         1.427508        -0.101023        -0.002996
 C        -0.107704         0.072145         0.283241
 C         2.102168         0.411432        -1.289225
 C         3.408582         0.424113        -0.509456
 C         2.751762         0.498936         0.890440
 O         2.850659         1.188143         2.075092
 H         4.744102        -2.252518        -0.007669
 H         5.304283        -0.931060         1.092331
 H         4.354300        -2.341354         1.769788
 H        -0.522139        -0.911798         0.483594
 H        -0.152821         0.771489         1.149056
 H        -0.679364         0.568977        -0.434443
 H         2.160138        -0.372490        -2.068944
 H         1.928269         1.427855        -1.797456
 H         4.304184         0.830163        -0.891422
 H         3.049971         2.113443         1.941655
