19
Iteration:  1788charge 0 multiplicity 1
 C         4.441087        -1.581875         1.001532
 C         3.254388        -0.799110         0.471098
 O         1.882129        -1.396482         0.316049
 C         1.400868        -0.010799         0.056094
 C        -0.004585        -0.138289         0.404691
 C         2.131952         0.446646        -1.326684
 C         3.357788         0.400156        -0.547726
 C         2.690318         0.475621         0.822990
 O         2.913851         1.234289         1.895777
 H         5.483323        -1.277385         0.569278
 H         4.473833        -1.479665         2.126380
 H         4.432095        -2.699171         0.749136
 H        -0.523748        -1.045201        -0.032772
 H        -0.230787        -0.186046         1.527257
 H        -0.587765         0.738321         0.005440
 H         1.769928        -0.249336        -2.155406
 H         1.774369         1.520047        -1.427675
 H         4.340287         0.638273        -0.864450
 H         3.829902         1.570982         1.960619
