19
Iteration:  2594charge 0 multiplicity 1
 C         4.414208        -1.584446         1.082567
 C         3.308419        -0.881668         0.448595
 O         2.071343        -1.522779         0.386206
 C         1.350541        -0.047498         0.175423
 C         0.031889         0.277979         0.592731
 C         1.868124         0.173208        -1.273020
 C         3.256656         0.160266        -0.734150
 C         2.705756         0.508752         0.667366
 O         3.029678         1.490261         1.730614
 H         4.310720        -1.523864         2.166937
 H         4.301594        -2.633631         0.901538
 H         5.382734        -1.259113         0.753334
 H        -0.219266         0.072208         1.709988
 H         0.064450         1.272447         0.103178
 H        -0.514039        -0.331857        -0.220940
 H         1.624227        -0.583817        -2.037263
 H         1.621750         1.180959        -1.610733
 H         4.174073         0.592102        -1.175160
 H         3.179640         0.900512         2.451285
