19
Iteration:  1171charge 0 multiplicity 1
 C         4.359081        -1.635178         1.078711
 C         3.283558        -0.862990         0.325117
 O         2.082079        -1.467788        -0.130492
 C         1.500824        -0.104848        -0.014428
 C        -0.064151        -0.156762         0.245766
 C         2.126527         0.844560        -1.082351
 C         3.421660         0.582603        -0.396558
 C         2.672939         0.343442         0.929415
 O         2.740315         1.007286         2.110941
 H         3.976153        -1.832460         2.109384
 H         4.740886        -2.545948         0.772500
 H         5.274794        -1.080132         1.227881
 H        -0.182589         0.202756         1.289966
 H        -0.612213         0.568225        -0.412594
 H        -0.493713        -1.181939         0.273506
 H         1.902155         0.678836        -2.155407
 H         1.891125         1.846852        -0.817054
 H         4.294295         1.178810        -0.480438
 H         3.210209         1.827588         1.895773
