19
Iteration:  2946charge 0 multiplicity 1
 C         4.298655        -1.571847         1.183378
 C         3.252652        -0.863071         0.466133
 O         1.930056        -1.366457         0.374480
 C         1.380834        -0.040374         0.088717
 C        -0.042751         0.015973         0.664158
 C         2.009912         0.131988        -1.303407
 C         3.361077         0.208412        -0.749553
 C         2.731271         0.513030         0.660333
 O         3.099703         1.494205         1.653496
 H         4.607959        -0.954604         2.080536
 H         3.808946        -2.417884         1.684211
 H         5.247176        -1.860197         0.666323
 H         0.003150        -0.564293         1.572152
 H        -0.299599         1.093218         0.810792
 H        -0.887058        -0.371354         0.054357
 H         1.807603        -0.629044        -2.069868
 H         1.661677         1.149436        -1.576229
 H         4.348919         0.657260        -1.092063
 H         4.090274         1.571390         1.723478
