19
Iteration:  2972charge 0 multiplicity 1
 C         4.243473        -1.643785         1.378237
 C         3.296623        -0.892695         0.504106
 O         2.036320        -1.526239         0.320153
 C         1.487922        -0.106237         0.106489
 C         0.166217         0.124624         0.720972
 C         1.793576         0.280535        -1.396372
 C         3.311100         0.323309        -0.841718
 C         2.777814         0.473148         0.620925
 O         3.015514         1.471487         1.652965
 H         4.567067        -1.065938         2.206607
 H         3.597515        -2.382632         1.799459
 H         5.068224        -2.095173         0.915337
 H        -0.129476        -0.557498         1.609081
 H         0.073345         1.197755         0.996598
 H        -0.573066        -0.024130        -0.082250
 H         1.581709        -0.310310        -2.282462
 H         1.381880         1.288027        -1.504360
 H         4.299422         0.193849        -1.147108
 H         3.158257         2.363219         1.225963
