19
Iteration:  1439charge 0 multiplicity 1
 C         4.383076        -1.632076         0.945472
 C         3.385609        -0.749651         0.355748
 O         2.076593        -1.466692         0.237623
 C         1.450519        -0.167482         0.078544
 C        -0.070402        -0.048445         0.136606
 C         1.995859         0.527746        -1.138967
 C         3.430619         0.611314        -0.460402
 C         2.723876         0.513303         0.819701
 O         2.771665         1.030786         2.126361
 H         5.393726        -1.304826         0.742942
 H         4.358971        -1.780764         2.076169
 H         4.319730        -2.685310         0.632474
 H        -0.454898        -0.381561         1.139830
 H        -0.277562         1.053092        -0.023279
 H        -0.416382        -0.575353        -0.826060
 H         1.802920        -0.171229        -1.934700
 H         1.489163         1.507486        -1.320196
 H         4.335737         1.143528        -0.801169
 H         3.054413         1.944203         2.087856
