19
Iteration:  4417
 C         4.521663        -1.550371         0.741189
 C         3.227467        -0.939926         0.606620
 O         1.947113        -1.567072         0.300018
 C         1.423120        -0.221299         0.080103
 C        -0.079589         0.170539         0.245972
 C         2.116054         0.376797        -1.268455
 C         3.304676         0.455759        -0.446982
 C         2.687150         0.471833         0.895851
 O         2.960199         1.348577         1.994250
 H         5.159205        -1.762476        -0.087407
 H         5.220846        -0.836609         1.368639
 H         4.385824        -2.489956         1.343076
 H        -0.685580        -0.195477        -0.596225
 H        -0.515370        -0.219700         1.159327
 H        -0.119224         1.199877         0.137161
 H         2.282616        -0.264108        -2.225801
 H         1.670402         1.297605        -1.604115
 H         4.300916         0.748384        -0.550980
 H         2.143922         1.292777         2.535540
