19
Iteration:  4401charge 0 multiplicity 1
 C         4.548072        -1.525654         0.862222
 C         3.258209        -0.804000         0.470170
 O         1.904108        -1.489052         0.325027
 C         1.407086        -0.135015         0.038694
 C        -0.008104         0.126938         0.316139
 C         2.145794         0.325776        -1.318946
 C         3.388281         0.415532        -0.410966
 C         2.605044         0.433305         0.904384
 O         2.879544         1.246466         1.912899
 H         4.878102        -1.975660        -0.132436
 H         5.185107        -0.822352         1.292600
 H         4.454613        -2.475784         1.381776
 H        -0.611370         0.032925        -0.598360
 H        -0.420537        -0.433484         1.191840
 H        -0.204561         1.186008         0.752799
 H         2.094545        -0.410793        -2.092977
 H         1.770185         1.366707        -1.552177
 H         4.419343         0.822183        -0.718462
 H         2.526975         0.986531         2.760783
