19
Iteration:   205charge 0 multiplicity 1
 C         4.347667        -1.726833         0.821018
 C         3.215677        -0.924781         0.454856
 O         2.056810        -1.365534        -0.312093
 C         1.418928        -0.000538        -0.128468
 C        -0.005039        -0.016743         0.268432
 C         2.312971         0.941763        -1.060972
 C         3.524450         0.530298        -0.200888
 C         2.653722         0.245108         1.037254
 O         2.665278         0.995479         2.225643
 H         3.992165        -2.456740         1.541315
 H         4.816175        -2.233663        -0.038679
 H         5.259713        -1.120952         1.162856
 H        -0.614233         0.881027         0.214072
 H        -0.530268        -0.836481        -0.371814
 H        -0.194284        -0.544379         1.276244
 H         2.326641         0.666565        -2.143454
 H         2.081666         1.973137        -0.906746
 H         4.455126         0.904410         0.005542
 H         1.999420         0.547734         2.768205
