19
Iteration:  1479
 C         4.464300        -1.730997         0.889107
 C         3.199953        -0.848327         0.478039
 O         2.015359        -1.418872        -0.055645
 C         1.444783        -0.040662        -0.004964
 C        -0.026528        -0.137105         0.442590
 C         2.174328         0.506988        -1.246571
 C         3.473668         0.519690        -0.376857
 C         2.710188         0.487964         0.936440
 O         2.730692         1.256028         2.066595
 H         4.983661        -0.941562         1.428022
 H         3.986313        -2.490521         1.593539
 H         5.023414        -2.247047         0.055270
 H         0.024897         0.082620         1.535764
 H        -0.795113         0.588719         0.131938
 H        -0.455180        -1.137978         0.205900
 H         2.167963        -0.302432        -2.039013
 H         2.006913         1.552526        -1.613188
 H         4.471941         0.811783        -0.442522
 H         2.126817         2.039719         1.980972
