19
Iteration:  1670
 C         4.390489        -1.726843         0.981806
 C         3.238145        -0.815940         0.473061
 O         1.971167        -1.426449         0.141733
 C         1.449845        -0.036955         0.055375
 C         0.026989        -0.138919         0.551707
 C         2.205546         0.440906        -1.340962
 C         3.462663         0.470783        -0.525941
 C         2.738068         0.561377         0.801608
 O         2.790051         1.355887         1.917901
 H         3.862206        -2.711887         1.027719
 H         5.260795        -1.717529         0.451323
 H         4.565636        -1.590064         2.042583
 H        -0.722040        -0.756512         0.049277
 H        -0.027835        -0.720584         1.461830
 H        -0.575177         0.709639         0.806864
 H         2.034380        -0.329681        -2.078301
 H         1.711044         1.362969        -1.558990
 H         4.440544         0.693395        -0.886450
 H         1.904638         1.588667         2.191456
