19
Iteration:  3078charge 0 multiplicity 1
 C         4.367044        -1.842228         0.892781
 C         3.332379        -0.806238         0.606050
 O         1.916330        -1.449948         0.554973
 C         1.464943        -0.125210         0.226546
 C        -0.073825         0.122655         0.178043
 C         1.908584         0.119691        -1.217669
 C         3.367894         0.290698        -0.629041
 C         2.839407         0.663876         0.738702
 O         3.013559         1.574403         1.838817
 H         5.356039        -1.578497         0.347130
 H         4.432287        -1.726040         1.998700
 H         4.062783        -2.942867         0.708746
 H        -0.428827         0.477193         1.144308
 H        -0.474566         0.754497        -0.596904
 H        -0.576686        -0.856316         0.128344
 H         1.678427        -0.730883        -1.908535
 H         1.570821         1.164854        -1.530625
 H         4.202481         0.540667        -1.183375
 H         3.592248         2.276444         1.493357
