19
Iteration:   155
 C         4.236906        -1.820402         0.810028
 C         3.312590        -0.781708         0.357837
 O         2.108968        -1.271475        -0.138470
 C         1.415450         0.086313         0.062796
 C        -0.131348        -0.102136        -0.076545
 C         2.158940         0.740179        -1.119276
 C         3.509701         0.635885        -0.285253
 C         2.738473         0.457086         1.081785
 O         2.805051         0.837587         2.456367
 H         3.613189        -2.613681         1.309573
 H         4.808677        -2.221582        -0.038847
 H         5.029889        -1.415307         1.322602
 H        -0.448188         0.773027        -0.675360
 H        -0.422469        -1.007482        -0.518356
 H        -0.731017        -0.042496         0.771280
 H         1.913101         0.197814        -1.977528
 H         1.764526         1.833603        -1.191437
 H         4.464619         1.251928        -0.517205
 H         3.266077         0.048785         2.892620
