19
Iteration:  4125
 C         4.249745        -1.809473         1.018502
 C         3.317797        -0.805052         0.493060
 O         2.025131        -1.465940         0.082628
 C         1.417108        -0.099493         0.059840
 C         0.014685        -0.078360         0.534069
 C         2.130488         0.496614        -1.292947
 C         3.433930         0.478645        -0.529810
 C         2.696597         0.548863         0.784403
 O         2.861753         1.323398         1.950216
 H         5.064048        -2.085898         0.328767
 H         4.600426        -1.377131         2.045353
 H         3.689006        -2.688467         1.427197
 H         0.049107        -0.787681         1.406277
 H        -0.405192         0.849756         0.938626
 H        -0.611323        -0.410744        -0.216831
 H         2.027388        -0.092247        -2.250347
 H         1.804499         1.576509        -1.489524
 H         4.485720         0.695072        -0.902027
 H         2.751439         2.261901         1.805432
