19
Iteration:  1931
 C         4.352861        -1.617467         0.983553
 C         3.288531        -0.759131         0.416139
 O         2.016467        -1.491540         0.316648
 C         1.438261        -0.218605         0.106402
 C        -0.019262         0.149392         0.335472
 C         1.996728         0.357719        -1.247493
 C         3.291340         0.392958        -0.587381
 C         2.729811         0.512486         0.803189
 O         2.988978         1.192379         1.976582
 H         4.047672        -2.432642         1.671291
 H         4.935280        -2.054558         0.203856
 H         5.085589        -1.005462         1.570904
 H        -0.082048         0.158433         1.450040
 H        -0.290481         1.064199        -0.153224
 H        -0.774470        -0.555432        -0.014371
 H         1.812227        -0.334629        -2.065929
 H         1.690616         1.380831        -1.462286
 H         4.102970         1.043179        -0.970065
 H         3.215472         2.143102         1.794764
