19
Iteration:  1450
 C         4.374681        -1.727521         0.919986
 C         3.364003        -0.694239         0.418087
 O         2.134084        -1.454760         0.188168
 C         1.461132        -0.215472         0.068161
 C         0.032026        -0.037080         0.193875
 C         2.042884         0.501169        -1.192936
 C         3.357308         0.570329        -0.499138
 C         2.635187         0.553948         0.898009
 O         2.780615         1.076780         2.104203
 H         5.371116        -1.330782         0.999612
 H         3.967930        -1.858173         1.991426
 H         4.329508        -2.595128         0.241901
 H        -0.419532        -0.202310         1.227180
 H        -0.238411         1.006476        -0.139753
 H        -0.648012        -0.792002        -0.332713
 H         1.894347         0.095491        -2.181370
 H         1.654041         1.559294        -1.205089
 H         4.306092         1.132724        -0.641633
 H         2.714647         2.048424         2.124744
