19
Iteration:  2358
 C         4.385815        -1.637513         1.035239
 C         3.223684        -0.797858         0.517351
 O         1.905622        -1.447839         0.469255
 C         1.332057        -0.031952         0.107036
 C        -0.099991         0.062419         0.457675
 C         2.019406         0.233311        -1.418768
 C         3.287030         0.138179        -0.642178
 C         2.719049         0.605177         0.742343
 O         3.219622         1.474617         1.803449
 H         4.423613        -1.763875         2.090046
 H         4.301798        -2.523508         0.480460
 H         5.333602        -1.174709         0.649301
 H        -0.261124        -0.546741         1.316641
 H        -0.316924         1.088788         0.811246
 H        -0.918906        -0.069322        -0.212892
 H         1.702036        -0.538068        -2.164960
 H         1.916759         1.234103        -1.794949
 H         4.245978         0.532994        -0.962354
 H         3.931314         0.920092         2.271503
