19
Iteration:  1270charge 0 multiplicity 1
 C         4.541549        -1.580575         0.779145
 C         3.310428        -0.868096         0.437963
 O         2.056800        -1.536905        -0.018841
 C         1.442871        -0.134081         0.042733
 C        -0.039553         0.024440         0.199157
 C         2.165749         0.636128        -1.076986
 C         3.409681         0.440589        -0.324223
 C         2.596415         0.377548         0.992108
 O         2.607870         1.162077         2.149476
 H         4.555427        -2.159845         1.773068
 H         4.901506        -2.336369         0.135669
 H         5.437947        -0.960599         0.879047
 H        -0.459334        -0.596070         1.007760
 H        -0.099919         1.083792         0.590469
 H        -0.528885        -0.004991        -0.822518
 H         2.051750         0.161262        -2.107915
 H         1.871062         1.657525        -1.063120
 H         4.473152         0.754800        -0.521824
 H         2.792209         2.071989         1.875217
