19
Iteration:  3345
 C         4.479763        -1.530205         1.239283
 C         3.270565        -0.898589         0.414685
 O         1.896591        -1.511495         0.240105
 C         1.393193        -0.139699         0.077888
 C        -0.040100         0.263182         0.445381
 C         1.993347         0.329982        -1.291789
 C         3.379432         0.229143        -0.690141
 C         2.741671         0.381996         0.770873
 O         2.984576         1.273588         1.891781
 H         5.469291        -1.440074         0.765467
 H         4.681035        -0.804912         2.046931
 H         4.364143        -2.533245         1.625915
 H        -0.020902         0.841514         1.312978
 H        -0.347861         1.009648        -0.301604
 H        -0.855169        -0.400513         0.458645
 H         1.830612        -0.259734        -2.211581
 H         1.657932         1.358075        -1.445646
 H         4.293412         0.636496        -1.081143
 H         2.979545         2.190732         1.553607
