19
Iteration:  1910
 C         4.460467        -1.718347         0.914384
 C         3.304498        -0.810914         0.488869
 O         2.008329        -1.480907         0.261378
 C         1.489672        -0.070538         0.121902
 C         0.007684         0.188696         0.415328
 C         1.954055         0.284191        -1.274768
 C         3.331479         0.472353        -0.630869
 C         2.753778         0.494737         0.845802
 O         2.853813         1.223914         1.993517
 H         4.280464        -2.049976         1.987255
 H         4.774925        -2.587926         0.405111
 H         5.427686        -1.164639         1.051425
 H        -0.485836        -0.076217         1.361263
 H        -0.246082         1.189201         0.208736
 H        -0.670418        -0.146385        -0.336782
 H         1.890696        -0.594790        -1.954987
 H         1.405917         1.114182        -1.715439
 H         4.381812         0.673219        -0.944251
 H         2.596762         2.109021         1.727882
