19
Iteration:   632
 C         4.386887        -1.705001         0.757359
 C         3.319613        -0.791846         0.428681
 O         2.054976        -1.351835        -0.095350
 C         1.454743        -0.077438        -0.025434
 C         0.020002        -0.046419         0.257294
 C         2.239213         0.685938        -1.198164
 C         3.476827         0.577605        -0.303237
 C         2.643505         0.516355         0.984180
 O         2.507296         0.890017         2.310149
 H         4.203088        -2.463276         1.569794
 H         4.724550        -2.227482        -0.237861
 H         5.281983        -1.227338         1.184564
 H        -0.538945        -0.172891        -0.671963
 H        -0.167698        -0.858303         0.978779
 H        -0.288266         0.946814         0.490469
 H         2.294532         0.012261        -2.116996
 H         1.961614         1.711481        -1.336588
 H         4.457671         0.990536        -0.339371
 H         3.337515         1.203720         2.667138
