19
Iteration:  3509charge 0 multiplicity 1
 C         4.362352        -1.749514         0.962750
 C         3.211351        -0.823923         0.442727
 O         1.895695        -1.431877         0.150105
 C         1.384461        -0.091270         0.018045
 C        -0.014836        -0.022148         0.397972
 C         2.133266         0.438333        -1.309387
 C         3.407011         0.438760        -0.508909
 C         2.736223         0.507797         0.894992
 O         2.974473         1.304767         2.074338
 H         3.864992        -2.399662         1.733449
 H         4.795607        -2.446734         0.248770
 H         5.154447        -1.138783         1.456395
 H        -0.701477        -0.609409        -0.260024
 H        -0.031775        -0.414541         1.464559
 H        -0.283262         1.071969         0.416018
 H         2.047263        -0.392066        -2.058121
 H         1.788172         1.375527        -1.774081
 H         4.398553         0.844205        -0.885198
 H         3.170791         2.207277         1.722791
