19
Iteration:  1620
 C         4.470283        -1.633255         1.035322
 C         3.277886        -0.862249         0.450001
 O         2.009956        -1.453181         0.079034
 C         1.380224        -0.149545         0.092620
 C        -0.091590        -0.026897         0.274997
 C         2.016857         0.466195        -1.146628
 C         3.394345         0.372519        -0.497994
 C         2.778990         0.459672         0.901555
 O         2.866687         1.375831         1.939363
 H         4.295900        -2.286314         1.898522
 H         4.987223        -2.128248         0.140033
 H         5.236335        -0.881533         1.334369
 H        -0.742238        -0.896309         0.231569
 H        -0.544652         0.515687         1.092347
 H        -0.371027         0.559220        -0.628512
 H         1.961295        -0.024347        -2.142700
 H         1.697837         1.536657        -1.190191
 H         4.367922         0.828170        -0.712024
 H         3.126527         0.938075         2.789338
