19
Iteration:  3321
 C         4.250782        -1.569469         1.192094
 C         3.166958        -0.826286         0.493684
 O         1.935139        -1.525222         0.254650
 C         1.426378        -0.028545         0.059322
 C         0.026715         0.037347         0.533720
 C         2.076513         0.360658        -1.314423
 C         3.412136         0.234692        -0.550536
 C         2.711595         0.479881         0.716108
 O         3.056053         1.335461         1.726288
 H         5.212534        -1.295997         0.812254
 H         4.381572        -1.196102         2.213545
 H         4.137697        -2.622171         1.152819
 H         0.021568         0.031602         1.599976
 H        -0.462067         0.959603         0.267767
 H        -0.579968        -0.673682         0.091780
 H         1.886791        -0.137781        -2.250380
 H         1.770478         1.408701        -1.337517
 H         4.410868         0.492263        -0.755144
 H         3.275299         2.242103         1.372786
