19
Iteration:  3186
 C         4.398072        -1.581589         1.225303
 C         3.339760        -0.910467         0.432961
 O         1.912399        -1.464283         0.406711
 C         1.441939        -0.111149         0.000099
 C         0.077768         0.336216         0.590982
 C         1.979900         0.111351        -1.401856
 C         3.308657         0.237981        -0.722337
 C         2.758199         0.462324         0.655670
 O         2.889341         1.407221         1.823772
 H         4.908930        -1.025966         2.038940
 H         3.779460        -2.211305         1.882587
 H         5.008465        -2.307758         0.638731
 H        -0.137656        -0.287582         1.447724
 H         0.228444         1.305407         1.025212
 H        -0.720827         0.326159        -0.170962
 H         1.817886        -0.642023        -2.173017
 H         1.516364         0.994466        -1.841672
 H         4.190729         0.713870        -1.073064
 H         3.691179         1.948174         1.592773
