19
Iteration:  3421charge 0 multiplicity 1
 C         4.326027        -1.784834         0.932698
 C         3.286670        -0.896244         0.563836
 O         1.987912        -1.391964         0.226792
 C         1.446988        -0.018144         0.118091
 C         0.014586         0.061369         0.390721
 C         2.086749         0.322350        -1.285285
 C         3.413702         0.318461        -0.471887
 C         2.684226         0.505478         0.903203
 O         2.885354         1.409596         1.855807
 H         4.081977        -2.764120         0.504783
 H         5.261620        -1.558183         0.415025
 H         4.492874        -1.871813         2.000412
 H        -0.456390         1.026196         0.363017
 H        -0.556811        -0.550698        -0.331367
 H        -0.177029        -0.293663         1.374797
 H         1.751140        -0.277861        -2.147187
 H         1.948099         1.352682        -1.625736
 H         4.462876         0.721463        -0.650669
 H         2.879620         2.275523         1.396012
