19
Iteration:  1295
 C         4.482157        -1.607688         0.802313
 C         3.254925        -0.899697         0.557853
 O         2.045967        -1.466544        -0.120242
 C         1.465351        -0.111692        -0.013843
 C        -0.045448         0.001970         0.398771
 C         2.259474         0.579127        -1.249150
 C         3.436153         0.493777        -0.261751
 C         2.590203         0.348114         0.967936
 O         2.556265         1.215600         2.089527
 H         4.574824        -2.559776         1.344144
 H         5.196721        -1.960806        -0.031237
 H         5.145733        -0.926428         1.401583
 H        -0.079529        -1.003837         0.935026
 H        -0.187955         0.751595         1.254323
 H        -0.771047         0.199160        -0.492929
 H         2.259474        -0.073448        -2.117626
 H         1.939425         1.602971        -1.564533
 H         4.455200         0.896307        -0.179658
 H         3.266376         1.876079         1.943884
