19
Iteration:  1345charge 0 multiplicity 1
 C         4.292796        -1.781648         0.994913
 C         3.424259        -0.748826         0.392387
 O         2.222225        -1.383130         0.020516
 C         1.495592        -0.129390         0.109878
 C         0.034686        -0.121343         0.331010
 C         2.004793         0.629383        -1.174774
 C         3.480665         0.507582        -0.524087
 C         2.705509         0.511029         0.873621
 O         2.541553         1.126543         2.135571
 H         3.998201        -2.760140         0.515061
 H         5.284171        -1.861598         0.722232
 H         4.251990        -1.900370         2.061103
 H        -0.317227        -1.101701         0.506488
 H        -0.249489         0.575654         1.084816
 H        -0.351528         0.309777        -0.546402
 H         1.805144         0.160584        -2.201169
 H         1.752841         1.669290        -1.251735
 H         4.334432         0.964214        -1.118592
 H         2.780207         2.086446         2.129484
