19
Iteration:  1848
 C         4.380503        -1.836926         0.975212
 C         3.290144        -0.874976         0.484334
 O         2.006099        -1.476594         0.155368
 C         1.471418        -0.061472         0.062610
 C        -0.014464        -0.022622         0.584398
 C         2.088286         0.427294        -1.238690
 C         3.409531         0.476200        -0.520161
 C         2.731016         0.469649         0.854149
 O         2.780275         1.425360         1.807598
 H         4.777936        -1.226604         1.764766
 H         3.931498        -2.754621         1.397265
 H         5.115098        -2.020091         0.210643
 H        -0.288015        -1.005518         0.893043
 H         0.016053         0.697044         1.441955
 H        -0.560438         0.271998        -0.313089
 H         1.781055        -0.191028        -2.118326
 H         1.670054         1.421277        -1.383303
 H         4.403290         0.904438        -0.667881
 H         3.059075         2.237000         1.371536
