19
Iteration:  3173charge 0 multiplicity 1
 C         4.302405        -1.667444         1.335831
 C         3.392071        -0.767329         0.385889
 O         1.903402        -1.447427         0.334416
 C         1.416418        -0.167514         0.145884
 C         0.083677         0.261287         0.648209
 C         1.964651         0.170795        -1.372164
 C         3.427064         0.283350        -0.787686
 C         2.748265         0.523406         0.652451
 O         2.885555         1.318782         1.714205
 H         5.028841        -0.936912         1.655710
 H         3.626028        -2.032840         2.061815
 H         4.917853        -2.449311         0.927569
 H        -0.155532        -0.212684         1.582001
 H         0.139544         1.372158         0.759378
 H        -0.842510         0.082596        -0.003314
 H         1.809805        -0.665579        -2.058297
 H         1.745829         1.164716        -1.676440
 H         4.322548         0.532771        -1.245044
 H         3.532941         1.999900         1.538619
