19
Iteration:  4014charge 0 multiplicity 1
 C         4.276918        -1.693093         0.990987
 C         3.247372        -0.796112         0.426045
 O         2.029225        -1.434031         0.107449
 C         1.433714        -0.033331        -0.039079
 C        -0.031527        -0.117963         0.446474
 C         2.111881         0.509371        -1.297650
 C         3.432919         0.482503        -0.469143
 C         2.677363         0.505586         0.847801
 O         2.918602         1.201646         2.069356
 H         3.800320        -2.683061         0.968937
 H         5.300693        -1.892961         0.510920
 H         4.391731        -1.517902         2.070377
 H        -0.097262         0.413921         1.371451
 H        -0.679955         0.268191        -0.299567
 H        -0.185559        -1.142813         0.590092
 H         2.148203        -0.053770        -2.277450
 H         1.723503         1.522559        -1.475347
 H         4.423415         0.782406        -0.600622
 H         2.993793         2.178529         1.875626
