19
Iteration:  4733
 C         4.457843        -1.519747         0.922266
 C         3.275403        -0.734041         0.415783
 O         2.010825        -1.432576         0.072822
 C         1.433747        -0.133768         0.045584
 C        -0.050157         0.122622         0.294076
 C         2.117449         0.480954        -1.248880
 C         3.510327         0.397694        -0.581814
 C         2.641442         0.441681         0.946363
 O         2.711990         1.046743         2.217526
 H         4.475757        -2.264647         0.136151
 H         5.351603        -0.788539         0.865908
 H         4.429318        -1.968237         1.931207
 H        -0.651373        -0.438338        -0.471920
 H        -0.395630         0.016630         1.328290
 H        -0.203449         1.208398         0.205366
 H         2.178665        -0.286164        -2.013693
 H         1.738911         1.404083        -1.540564
 H         4.451863         0.697312        -0.904567
 H         3.185866         0.365761         2.731201
