19
Iteration:  2730charge 0 multiplicity 1
 C         4.470629        -1.547467         0.865569
 C         3.184767        -0.812184         0.591677
 O         1.876088        -1.436080         0.433968
 C         1.362832        -0.101357         0.178785
 C        -0.103485         0.063408         0.428325
 C         2.013736         0.111476        -1.284108
 C         3.325688         0.143399        -0.557429
 C         2.783523         0.577910         0.793481
 O         3.178651         1.579309         1.694987
 H         5.225652        -0.987886         0.351431
 H         4.662826        -1.482971         1.934660
 H         4.430060        -2.582904         0.564824
 H        -0.504645        -0.549992         1.196529
 H        -0.517062         1.028540         0.659123
 H        -0.750130        -0.186753        -0.386472
 H         1.973900        -0.734905        -1.943995
 H         1.631646         1.040491        -1.715789
 H         4.290584         0.216928        -1.061296
 H         3.001105         1.178176         2.573841
