19
Iteration:  4538
 C         4.338892        -1.567767         1.126334
 C         3.316070        -0.857029         0.417244
 O         2.052445        -1.488667         0.055141
 C         1.444032        -0.151972         0.019680
 C         0.085521         0.059157         0.470317
 C         2.052186         0.579579        -1.305410
 C         3.358219         0.440727        -0.520159
 C         2.715480         0.464835         0.795055
 O         2.790776         1.170567         1.982461
 H         4.387563        -2.619140         0.900086
 H         5.296404        -1.149331         0.716557
 H         4.158308        -1.597649         2.204309
 H        -0.578499        -0.237655        -0.354740
 H         0.030251        -0.648119         1.302918
 H        -0.143683         1.046983         0.792730
 H         1.870751         0.048695        -2.316394
 H         1.732919         1.643014        -1.362642
 H         4.403371         0.873625        -0.763966
 H         2.394399         0.557665         2.661829
