19
Iteration:  1658
 C         4.293928        -1.727927         0.994736
 C         3.310367        -0.809400         0.497856
 O         2.042300        -1.421376         0.164578
 C         1.447040        -0.190408         0.066971
 C        -0.050711        -0.107649         0.528812
 C         2.124799         0.449160        -1.314460
 C         3.419295         0.567699        -0.500920
 C         2.709568         0.494212         0.791676
 O         2.873017         1.336862         1.890690
 H         3.881058        -2.744762         1.083072
 H         5.127716        -1.870377         0.354331
 H         4.666689        -1.325875         1.937290
 H        -0.527214        -0.859351        -0.093283
 H        -0.033150        -0.207050         1.611835
 H        -0.328200         0.885550         0.215582
 H         2.123022        -0.206822        -2.198503
 H         1.894962         1.459607        -1.651052
 H         4.327388         1.097740        -0.701668
 H         1.943763         1.459292         2.208536
