19
Iteration:  3467charge 0 multiplicity 1
 C         4.263726        -1.909106         1.061688
 C         3.359640        -0.899309         0.535011
 O         1.969984        -1.414379         0.152778
 C         1.492408        -0.065991         0.035790
 C        -0.055454        -0.168810         0.391098
 C         2.034732         0.701678        -1.087472
 C         3.382483         0.352242        -0.497540
 C         2.722110         0.426128         0.886415
 O         2.954892         1.508600         1.705594
 H         3.708227        -2.854280         1.178086
 H         5.099965        -2.296544         0.520248
 H         4.627789        -1.522436         2.055828
 H        -0.687743         0.130449        -0.377601
 H        -0.276957        -1.223213         0.473298
 H        -0.440726         0.411922         1.260792
 H         1.815562         0.345682        -2.127481
 H         1.722864         1.737279        -1.020339
 H         4.329391         0.949690        -0.535237
 H         3.677048         2.018492         1.361937
