19
Iteration:  1829
 C         4.366039        -1.760376         1.063166
 C         3.365771        -0.847499         0.346850
 O         2.103488        -1.451645         0.081100
 C         1.469051        -0.120074         0.169741
 C        -0.068323        -0.026151         0.480170
 C         1.929923         0.420948        -1.182471
 C         3.351458         0.366746        -0.513595
 C         2.715960         0.498998         0.864308
 O         2.833849         1.457493         1.859338
 H         5.180903        -1.422991         1.658993
 H         3.553652        -2.298663         1.656616
 H         4.793236        -2.489411         0.373435
 H        -0.562983        -0.998940         0.629345
 H        -0.024339         0.522730         1.451981
 H        -0.402516         0.521125        -0.416834
 H         2.047568        -0.164318        -2.058978
 H         1.789669         1.501954        -1.389361
 H         4.218976         0.844731        -0.864346
 H         3.614788         1.942524         1.599755
