19
Iteration:  2432charge 0 multiplicity 1
 C         4.385012        -1.657727         0.959819
 C         3.185074        -0.883392         0.582400
 O         1.898597        -1.532545         0.383080
 C         1.395834        -0.052043         0.065333
 C         0.059933         0.216566         0.676733
 C         2.039502         0.202923        -1.286971
 C         3.447500         0.257782        -0.627705
 C         2.756834         0.520478         0.698643
 O         2.992679         1.500607         1.649238
 H         4.317683        -2.056192         2.037902
 H         4.386368        -2.527963         0.291785
 H         5.287356        -0.990540         0.778366
 H        -0.000291         0.177313         1.735411
 H        -0.355737         1.152303         0.364451
 H        -0.762681        -0.430605         0.403547
 H         1.832818        -0.653643        -1.958922
 H         1.831784         1.131870        -1.824066
 H         4.344323         0.611634        -1.116453
 H         2.392454         1.286456         2.375725
