19
Iteration:   790charge 0 multiplicity 1
 C         4.548066        -1.501345         0.925556
 C         3.292021        -0.892261         0.402560
 O         2.089183        -1.451571        -0.202829
 C         1.462815        -0.111488        -0.024491
 C        -0.067337         0.040098         0.274757
 C         2.122442         0.734649        -1.153687
 C         3.457782         0.448320        -0.301985
 C         2.583988         0.353712         0.992872
 O         2.581987         0.945157         2.217666
 H         4.500627        -1.879343         1.973934
 H         5.016419        -2.272646         0.395593
 H         5.179595        -0.625321         1.044358
 H        -0.239420         0.775993         1.007017
 H        -0.654145         0.212746        -0.575093
 H        -0.483967        -0.842041         0.630324
 H         2.179588         0.242467        -2.114228
 H         1.870035         1.762298        -1.285208
 H         4.492996         0.762134        -0.429827
 H         3.356056         1.529909         2.154388
