19
Iteration:  4184
 C         4.305242        -1.630348         1.061480
 C         3.272893        -0.867984         0.450069
 O         2.040302        -1.500191         0.035805
 C         1.426562        -0.049515         0.044433
 C        -0.034834        -0.012631         0.500943
 C         2.074823         0.524270        -1.237938
 C         3.471200         0.362626        -0.483789
 C         2.713342         0.395129         0.868603
 O         2.830078         1.307645         1.915480
 H         5.120157        -1.950657         0.294513
 H         4.798786        -0.971182         1.723621
 H         3.803113        -2.530316         1.488998
 H        -0.292803        -0.994553         0.809328
 H        -0.070780         0.623396         1.377767
 H        -0.836710         0.262483        -0.214785
 H         1.918071        -0.120417        -2.107934
 H         1.929002         1.584094        -1.492369
 H         4.408714         0.842933        -0.697518
 H         3.310383         2.110509         1.577174
