19
Iteration:    59
 C         4.361101        -1.871626         0.758589
 C         3.308864        -0.873232         0.402052
 O         2.095568        -1.442729        -0.178044
 C         1.510795        -0.066318        -0.022755
 C         0.055915         0.067690         0.316233
 C         2.273230         0.839868        -1.041954
 C         3.509937         0.673943        -0.186994
 C         2.701281         0.354962         0.955459
 O         2.428123         1.041401         2.125275
 H         3.867739        -2.708460         1.372437
 H         4.492622        -2.326106        -0.271121
 H         5.354147        -1.622219         1.122939
 H        -0.066680         0.864962         1.198676
 H        -0.579458         0.440581        -0.538301
 H        -0.451080        -0.825641         0.720811
 H         2.333406         0.470832        -2.208256
 H         1.910487         1.808846        -0.909273
 H         4.594450         0.790497        -0.297213
 H         2.273968         0.466093         2.908564
