19
Iteration:  2455charge 0 multiplicity 1
 C         4.314083        -1.812881         1.015680
 C         3.254453        -0.894791         0.447526
 O         1.856309        -1.348666         0.319252
 C         1.441724        -0.059797         0.113771
 C         0.156375         0.050436         0.758456
 C         2.072688         0.222087        -1.390654
 C         3.357682         0.217672        -0.584347
 C         2.753254         0.493405         0.852804
 O         2.944559         1.666120         1.549292
 H         3.900755        -2.440524         1.890607
 H         4.700265        -2.504792         0.268032
 H         5.149748        -1.087010         1.352323
 H         0.299280         0.012972         1.799528
 H        -0.505014         0.861129         0.584782
 H        -0.525382        -0.740583         0.634254
 H         1.856746        -0.514973        -2.196516
 H         2.020637         1.224664        -1.795633
 H         4.343119         0.429780        -1.031853
 H         2.508938         1.542797         2.454232
