19
Iteration:   448
 C         4.556872        -1.716775         0.730753
 C         3.334877        -0.918624         0.371174
 O         2.095392        -1.465819        -0.286580
 C         1.449070        -0.117122        -0.000481
 C         0.020003         0.227568         0.236745
 C         2.161991         0.809036        -0.986897
 C         3.467955         0.515832        -0.185272
 C         2.629359         0.272237         1.019482
 O         2.419458         0.931060         2.265022
 H         4.362308        -2.437733         1.586205
 H         4.891012        -2.283467        -0.154744
 H         5.360422        -1.061014         0.984208
 H        -0.129224         1.318982         0.330411
 H        -0.723153         0.055617        -0.601716
 H        -0.313117        -0.181732         1.156810
 H         1.978789         0.510163        -2.130360
 H         1.905936         1.868011        -0.749099
 H         4.474282         0.937477        -0.406543
 H         3.266139         1.384228         2.530593
