19
Iteration:  2188
 C         4.481189        -1.639791         1.105040
 C         3.240039        -0.886278         0.538649
 O         1.868448        -1.510678         0.251116
 C         1.368104        -0.091851         0.144586
 C        -0.035389         0.146786         0.471539
 C         1.912459         0.377084        -1.162702
 C         3.323355         0.207800        -0.624129
 C         2.771848         0.484830         0.757585
 O         3.154172         1.415203         1.715108
 H         4.543290        -1.322751         2.160930
 H         4.083168        -2.722529         0.930943
 H         5.451080        -1.450190         0.583710
 H        -0.383943        -0.327424         1.384276
 H        -0.243181         1.205571         0.374673
 H        -0.604648        -0.333425        -0.309028
 H         1.526092        -0.348372        -1.901552
 H         1.533492         1.418140        -1.297747
 H         4.323398         0.453869        -0.929902
 H         3.440022         2.207858         1.206404
