19
Iteration:  4075
 C         4.528037        -1.526810         0.822102
 C         3.217235        -0.879716         0.563691
 O         1.915911        -1.475559         0.291458
 C         1.390607        -0.124119         0.110339
 C        -0.061920         0.103410         0.172421
 C         2.090280         0.391502        -1.191481
 C         3.395013         0.407791        -0.485154
 C         2.722801         0.467685         0.861704
 O         2.919897         1.150198         2.043199
 H         4.617312        -2.189357        -0.092098
 H         5.326943        -0.887718         0.936591
 H         4.552562        -2.236094         1.659729
 H        -0.462381         0.477023         1.131993
 H        -0.093296         0.986446        -0.526558
 H        -0.819937        -0.669476        -0.262742
 H         1.904297        -0.169434        -2.080539
 H         1.603077         1.360845        -1.235446
 H         4.403253         0.758895        -0.604580
 H         2.975399         2.124971         1.919819
