19
Iteration:  3664charge 0 multiplicity 1
 C         4.246941        -1.901729         0.943651
 C         3.320834        -0.832201         0.380908
 O         2.000310        -1.383416         0.115194
 C         1.319708        -0.087741         0.022316
 C        -0.082626        -0.210390         0.270411
 C         2.127098         0.726692        -1.122496
 C         3.449632         0.479548        -0.480350
 C         2.703628         0.476793         0.898715
 O         3.012848         1.316584         2.056732
 H         5.322270        -1.869974         0.710808
 H         4.178654        -1.685776         2.011903
 H         3.871650        -2.900841         0.972557
 H        -0.413393         0.376641         1.122913
 H        -0.689947        -0.087190        -0.656920
 H        -0.112556        -1.343066         0.599313
 H         1.896272         0.441905        -2.189583
 H         1.903129         1.768973        -0.937359
 H         4.462381         0.798989        -0.625789
 H         3.119179         2.202127         1.712008
