19
Iteration:  4708charge 0 multiplicity 1
 C         4.424455        -1.643569         1.023291
 C         3.264275        -0.865349         0.371453
 O         2.050516        -1.465168        -0.012028
 C         1.450954         0.004603        -0.020468
 C         0.036648         0.021426         0.421685
 C         2.083816         0.601982        -1.227602
 C         3.401114         0.460965        -0.441237
 C         2.687544         0.393233         0.871503
 O         2.729108         1.168303         2.054562
 H         4.844210        -2.361707         0.313983
 H         5.148650        -0.923993         1.528205
 H         3.934216        -2.341423         1.724179
 H        -0.396051        -0.878880         0.039169
 H         0.013654         0.046626         1.453188
 H        -0.593894         0.920000         0.109877
 H         2.116590        -0.067075        -2.083488
 H         1.738466         1.618038        -1.459834
 H         4.373626         1.061413        -0.577012
 H         2.924166         0.439391         2.707004
