19
Iteration:  4976charge 0 multiplicity 1
 C         4.278997        -1.674348         0.985112
 C         3.282613        -0.757823         0.439285
 O         2.061574        -1.436177         0.007406
 C         1.458229        -0.094744        -0.020769
 C         0.045886        -0.027294         0.357322
 C         2.080780         0.559802        -1.234643
 C         3.426002         0.557551        -0.413042
 C         2.648380         0.432114         0.879552
 O         2.821615         1.135968         2.084965
 H         4.270802        -2.563140         0.319439
 H         5.215232        -1.146313         0.855543
 H         4.068426        -1.802001         2.088278
 H        -0.565647        -0.734206        -0.199937
 H        -0.148071        -0.399990         1.404250
 H        -0.340028         0.959705         0.237068
 H         1.773087         0.019570        -2.106269
 H         1.860525         1.587967        -1.411756
 H         4.385448         0.771717        -0.794567
 H         3.464207         0.610401         2.641340
