19
Iteration:  4767
 C         4.554605        -1.580541         0.872516
 C         3.290960        -0.871697         0.503007
 O         1.951914        -1.422051         0.254823
 C         1.457286        -0.121214         0.090583
 C        -0.035301         0.148546         0.177958
 C         2.082948         0.514889        -1.229115
 C         3.405185         0.585570        -0.487346
 C         2.686736         0.424549         0.844829
 O         2.723733         1.009984         2.107863
 H         4.627767        -2.534186         0.309157
 H         5.407570        -1.042891         0.341862
 H         4.893941        -1.691384         1.944376
 H        -0.429437         0.212158        -0.878941
 H        -0.655892        -0.710416         0.614618
 H        -0.181249         1.152054         0.534164
 H         2.157208        -0.186656        -2.064219
 H         1.470070         1.318311        -1.583902
 H         4.398927         0.912006        -0.648943
 H         2.949701         0.400951         2.800539
