19
Iteration:  3412
 C         4.372807        -1.782844         0.926859
 C         3.213527        -0.800624         0.568768
 O         1.960775        -1.398404         0.320920
 C         1.498760         0.011736         0.039300
 C        -0.026039         0.091533         0.398263
 C         2.114960         0.304018        -1.328629
 C         3.406788         0.328913        -0.478772
 C         2.693865         0.490760         0.809719
 O         2.875856         1.335335         1.907642
 H         4.193589        -2.732011         0.379629
 H         5.246822        -1.288555         0.516006
 H         4.573726        -2.034615         1.999023
 H        -0.233484         1.092951         0.560217
 H        -0.666249        -0.377263        -0.334433
 H        -0.108791        -0.483266         1.328073
 H         1.954449        -0.629268        -1.921150
 H         1.917945         1.287306        -1.722629
 H         4.406854         0.611330        -0.940087
 H         2.797309         2.284562         1.689820
