19
Iteration:  3632charge 0 multiplicity 1
 C         4.223582        -1.899363         1.036719
 C         3.257172        -0.866389         0.474033
 O         2.033845        -1.389530        -0.046968
 C         1.429336        -0.010674         0.059392
 C         0.020295        -0.125611         0.426164
 C         2.064638         0.629670        -1.164196
 C         3.452736         0.551273        -0.494691
 C         2.711907         0.474627         0.878489
 O         2.936138         1.228324         2.002157
 H         5.135275        -1.302308         1.327588
 H         3.671105        -2.080001         2.007133
 H         4.420797        -2.725747         0.323856
 H        -0.164946         0.255736         1.432562
 H        -0.691094         0.376522        -0.283922
 H        -0.062474        -1.291549         0.258822
 H         1.865682         0.104791        -2.167726
 H         1.751210         1.667918        -1.361891
 H         4.482144         0.782884        -0.693055
 H         2.928122         2.189437         1.709170
