19
Iteration:  4363
 C         4.338489        -1.649589         1.103665
 C         3.322216        -0.787989         0.402488
 O         2.053423        -1.455923         0.112369
 C         1.488724        -0.062088         0.045290
 C         0.028936        -0.012648         0.524266
 C         2.028127         0.466364        -1.287055
 C         3.438902         0.364052        -0.664287
 C         2.709267         0.446098         0.843402
 O         2.719684         1.340801         1.976067
 H         4.418778        -2.471341         0.432043
 H         5.452472        -1.282297         1.255701
 H         4.004609        -1.898079         2.133819
 H        -0.595342         0.074121        -0.417463
 H        -0.295530        -0.983311         0.986373
 H        -0.070712         0.873386         1.118464
 H         1.787796        -0.197158        -2.177055
 H         1.689396         1.447582        -1.510328
 H         4.376275         0.559406        -1.077135
 H         3.369559         0.996753         2.649917
