19
Iteration:  4855charge 0 multiplicity 1
 C         4.218222        -1.910775         0.950591
 C         3.364330        -0.802859         0.383963
 O         2.113281        -1.403251        -0.048794
 C         1.472500        -0.088844         0.066153
 C         0.050430        -0.194313         0.407599
 C         2.104563         0.699597        -1.118417
 C         3.416689         0.463160        -0.398980
 C         2.773974         0.463566         0.967445
 O         2.687539         1.434194         1.899325
 H         4.677125        -2.131736        -0.069177
 H         4.901917        -1.673854         1.785443
 H         3.542122        -2.737805         1.410513
 H        -0.567108        -0.697371        -0.375862
 H        -0.116798        -0.971619         1.318083
 H        -0.371659         0.685204         0.844929
 H         1.994938         0.363940        -2.142722
 H         2.017612         1.789260        -0.987252
 H         4.407894         0.852799        -0.782864
 H         2.662661         0.926431         2.706952
