19
Iteration:  2182charge 0 multiplicity 1
 C         4.403841        -1.631409         1.064579
 C         3.207622        -0.912073         0.557224
 O         1.931747        -1.510269         0.248337
 C         1.342826        -0.040906         0.117276
 C        -0.062520         0.087849         0.478463
 C         1.951535         0.414830        -1.162269
 C         3.337431         0.187965        -0.609243
 C         2.741136         0.481348         0.786976
 O         3.194069         1.425784         1.691997
 H         4.477780        -1.310552         2.118400
 H         4.269106        -2.662472         1.295863
 H         5.376825        -1.483016         0.635542
 H        -0.286259        -0.442526         1.437482
 H        -0.289628         1.178689         0.676613
 H        -0.801665        -0.348725        -0.271442
 H         1.603084        -0.270397        -1.951413
 H         1.722074         1.463478        -1.413656
 H         4.293799         0.327223        -1.160789
 H         3.330694         2.285368         1.218005
