19
Iteration:  3121
 C         4.374397        -1.682221         1.184969
 C         3.169261        -0.864839         0.556308
 O         1.858864        -1.441422         0.301688
 C         1.346395        -0.024548         0.052813
 C        -0.095241         0.013906         0.564043
 C         2.123405         0.290279        -1.298583
 C         3.391937         0.210940        -0.566950
 C         2.780750         0.582239         0.682453
 O         3.153458         1.460032         1.644423
 H         5.388786        -1.378674         0.700081
 H         4.349542        -1.550139         2.304181
 H         4.212935        -2.816645         1.019040
 H        -0.158863         0.308058         1.607039
 H        -0.755911         0.694166         0.051612
 H        -0.415833        -1.044535         0.440443
 H         1.995974        -0.370541        -2.203198
 H         1.923610         1.354205        -1.650562
 H         4.387582         0.452273        -0.766071
 H         2.555315         2.189422         1.680905
