19
Iteration:  3828charge 0 multiplicity 1
 C         4.292525        -1.777501         1.059775
 C         3.247156        -0.877491         0.302576
 O         2.030341        -1.409970        -0.082526
 C         1.430687        -0.094028        -0.045963
 C        -0.135654        -0.213032         0.379112
 C         2.115455         0.778119        -1.155105
 C         3.458480         0.453146        -0.426618
 C         2.756654         0.458558         0.987404
 O         2.913842         1.240083         2.084073
 H         3.674581        -2.272882         1.862205
 H         4.761473        -2.597591         0.434213
 H         5.006734        -1.088766         1.559415
 H        -0.739380         0.412638        -0.365779
 H        -0.389635        -1.284264         0.249513
 H        -0.428102         0.112780         1.442064
 H         2.228064         0.411971        -2.213666
 H         1.771971         1.800703        -1.111653
 H         4.511461         0.768288        -0.794677
 H         3.281008         2.159598         2.122199
