19
Iteration:  4542charge 0 multiplicity 1
 C         4.389375        -1.537353         1.087249
 C         3.283157        -0.833428         0.438577
 O         2.041875        -1.489621         0.085547
 C         1.452151        -0.158789        -0.017273
 C         0.092724         0.095944         0.439936
 C         2.047287         0.556876        -1.312361
 C         3.337792         0.411128        -0.511183
 C         2.716535         0.449865         0.788504
 O         2.804790         1.153611         2.001181
 H         4.350063        -2.661197         0.897114
 H         5.332377        -1.116655         0.850486
 H         4.231864        -1.624955         2.213296
 H        -0.517979        -0.169178        -0.414724
 H         0.014904        -0.660171         1.274421
 H        -0.225569         1.050856         0.868356
 H         1.945140         0.124910        -2.272074
 H         1.699921         1.623862        -1.222679
 H         4.237758         0.876008        -0.720779
 H         2.325940         0.559773         2.595305
