19
Iteration:   843
 C         4.348770        -1.836595         0.888627
 C         3.375249        -0.785297         0.392086
 O         2.163966        -1.366135        -0.052776
 C         1.540476        -0.049302         0.041902
 C        -0.014190        -0.237753         0.263891
 C         2.087015         0.693038        -1.135648
 C         3.480196         0.635613        -0.425443
 C         2.722775         0.484527         0.978953
 O         2.496808         1.145745         2.173517
 H         3.605858        -2.591984         1.374037
 H         4.726824        -2.333639        -0.042572
 H         5.137674        -1.582358         1.692265
 H        -0.340194        -0.150378         1.329395
 H        -0.631892         0.507833        -0.308073
 H        -0.355115        -1.224647        -0.054236
 H         2.231808         0.190581        -2.185114
 H         1.654279         1.694374        -1.185031
 H         4.327742         1.237302        -0.741686
 H         3.351430         1.374318         2.566435
