19
Iteration:    92
 C         4.516865        -1.750357         0.826967
 C         3.304591        -0.910591         0.346166
 O         2.010898        -1.372030        -0.292999
 C         1.474544        -0.013479         0.005156
 C        -0.048468         0.107848         0.134916
 C         2.193954         0.824361        -1.009445
 C         3.423102         0.484021        -0.162661
 C         2.597390         0.225080         1.084680
 O         2.692624         1.031334         2.234667
 H         4.177489        -2.543592         1.564669
 H         4.846443        -2.311104        -0.086693
 H         5.384630        -1.183042         1.202605
 H        -0.091772         1.280707         0.185757
 H        -0.466436        -0.258122        -0.828160
 H        -0.409472        -0.445798         1.024230
 H         2.035870         0.503361        -2.145403
 H         1.966211         1.823584        -0.899776
 H         4.523947         0.787763        -0.194364
 H         1.996169         0.630748         2.826705
