19
Iteration:  1372charge 0 multiplicity 1
 C         4.380668        -1.653448         1.013732
 C         3.264539        -0.870814         0.416219
 O         2.071059        -1.469473        -0.001717
 C         1.428234        -0.109049         0.035091
 C        -0.049916        -0.143728         0.317075
 C         2.132803         0.675934        -1.257678
 C         3.416672         0.592030        -0.357719
 C         2.639654         0.393557         0.909732
 O         2.831543         1.140813         2.079367
 H         4.797973        -2.442061         0.393986
 H         5.376540        -1.066330         1.148828
 H         4.066945        -2.150448         1.974911
 H        -0.426758        -1.192160         0.586595
 H        -0.284943         0.688526         1.051500
 H        -0.596315         0.326455        -0.598239
 H         2.201006         0.121276        -2.189449
 H         1.705191         1.677398        -1.574368
 H         4.370638         1.038361        -0.406942
 H         2.563682         2.074336         1.883647
