19
Iteration:  3962charge 0 multiplicity 1
 C         4.252465        -1.706369         1.147961
 C         3.314946        -0.882821         0.382533
 O         2.083147        -1.511812        -0.121509
 C         1.475134        -0.089843        -0.002970
 C         0.118886        -0.010167         0.552095
 C         2.053723         0.645777        -1.186073
 C         3.439169         0.398036        -0.492059
 C         2.635149         0.404613         0.861158
 O         2.731067         1.259915         1.993230
 H         3.723859        -2.420793         1.776846
 H         4.870382        -2.214033         0.288164
 H         5.062203        -1.154967         1.695121
 H         0.233316         0.718581         1.491741
 H        -0.677392         0.388467        -0.158364
 H        -0.004765        -1.069986         0.779133
 H         1.806892         0.184451        -2.181245
 H         1.996587         1.750734        -1.349877
 H         4.295426         0.993369        -0.677353
 H         2.955086         2.173606         1.656406
