19
Iteration:  3595
 C         4.365997        -1.613713         0.884931
 C         3.249136        -0.794328         0.461349
 O         2.012110        -1.504621         0.085020
 C         1.450264        -0.089678         0.039514
 C        -0.036287         0.212896         0.479937
 C         2.162244         0.437154        -1.288495
 C         3.447849         0.415943        -0.466036
 C         2.653622         0.485444         0.839404
 O         2.793325         1.035158         2.044242
 H         4.800920        -1.035314         1.696849
 H         4.080107        -2.554398         1.296658
 H         5.192770        -1.880000         0.253875
 H        -0.068019        -0.076886         1.553582
 H        -0.337022         1.288742         0.401730
 H        -0.826479        -0.406969         0.078257
 H         2.187447        -0.158355        -2.183409
 H         1.917308         1.495491        -1.410490
 H         4.510703         0.605593        -0.735795
 H         2.903276         2.015826         1.999557
