19
Iteration:  2092charge 0 multiplicity 1
 C         4.457816        -1.629292         0.945262
 C         3.214697        -0.911696         0.553943
 O         1.938991        -1.498408         0.366200
 C         1.446403        -0.100339         0.132128
 C        -0.005543         0.303928         0.509701
 C         1.989242         0.261410        -1.267437
 C         3.386469         0.287014        -0.613048
 C         2.815879         0.446359         0.754258
 O         2.904269         1.321446         1.778336
 H         5.397316        -1.132277         0.596836
 H         4.475489        -1.562904         2.090385
 H         4.348224        -2.655554         0.565145
 H        -0.398016        -0.645275         1.017227
 H        -0.060735         1.141380         1.221926
 H        -0.681205         0.416580        -0.373281
 H         1.827217        -0.354500        -2.160957
 H         1.578556         1.310260        -1.439886
 H         4.355060         0.632401        -0.956274
 H         2.774044         2.223399         1.382191
