19
Iteration:   833
 C         4.344732        -1.775803         0.888627
 C         3.363681        -0.795810         0.377598
 O         2.113152        -1.366202        -0.065160
 C         1.448999        -0.059585         0.041334
 C         0.031958        -0.240514         0.297187
 C         2.203361         0.718481        -1.181967
 C         3.412984         0.665808        -0.333382
 C         2.667539         0.440349         0.943302
 O         2.541455         1.107199         2.139486
 H         3.824432        -2.530147         1.578050
 H         4.879385        -2.397932         0.171205
 H         5.142713        -1.267182         1.532796
 H        -0.204094         0.014963         1.316739
 H        -0.520038         0.380411        -0.385858
 H        -0.210441        -1.259902         0.079998
 H         1.955520         0.275924        -2.191219
 H         1.849905         1.742299        -1.178147
 H         4.454795         0.892791        -0.565414
 H         3.432956         1.302856         2.486441
