19
Iteration:  3610
 C         4.300060        -1.717323         0.995902
 C         3.265128        -0.869655         0.359795
 O         2.007369        -1.417788         0.032808
 C         1.378811        -0.116038        -0.048526
 C         0.024948         0.047397         0.518255
 C         2.163933         0.533585        -1.303774
 C         3.431759         0.479001        -0.458634
 C         2.665414         0.427630         0.898255
 O         2.878622         1.174261         2.116076
 H         5.023577        -1.166072         1.671998
 H         3.762149        -2.551153         1.534688
 H         4.905031        -2.190247         0.175938
 H         0.047772         0.298797         1.568664
 H        -0.297425         0.977705        -0.003957
 H        -0.689652        -0.805945         0.192740
 H         2.044470        -0.206063        -2.158697
 H         1.756528         1.494361        -1.637680
 H         4.342782         0.994526        -0.618344
 H         2.935079         2.068327         1.786880
