19
Iteration:  3719charge 0 multiplicity 1
 C         4.493962        -1.633728         0.737454
 C         3.262506        -0.824994         0.446872
 O         1.922198        -1.512230         0.218070
 C         1.372099        -0.107829         0.049838
 C        -0.073274         0.146832         0.181624
 C         2.144147         0.481418        -1.251300
 C         3.385740         0.450107        -0.419448
 C         2.749227         0.433403         0.955624
 O         2.838597         1.105321         2.215348
 H         4.929414        -2.205528        -0.120937
 H         5.360626        -1.037623         1.018607
 H         4.300677        -2.385540         1.472955
 H        -0.304410         1.236772         0.114141
 H        -0.743673        -0.324996        -0.566187
 H        -0.429642        -0.003136         1.272924
 H         2.152650        -0.149568        -2.172458
 H         1.956332         1.521529        -1.514890
 H         4.435656         0.862607        -0.513925
 H         2.916473         2.079283         2.110899
