19
Iteration:  2360
 C         4.401133        -1.637777         1.025792
 C         3.224965        -0.793506         0.519876
 O         1.911891        -1.441393         0.471959
 C         1.315510        -0.048414         0.112431
 C        -0.105765         0.067757         0.448472
 C         2.009204         0.228089        -1.411929
 C         3.297902         0.150259        -0.636018
 C         2.727344         0.609803         0.726332
 O         3.216218         1.457359         1.810507
 H         4.436970        -1.735719         2.062614
 H         4.298361        -2.578227         0.531939
 H         5.259768        -1.113262         0.636925
 H        -0.341762        -0.519584         1.368374
 H        -0.260554         1.145659         0.767154
 H        -0.910770        -0.045481        -0.279205
 H         1.639104        -0.529489        -2.117510
 H         1.924081         1.215577        -1.805145
 H         4.292917         0.454840        -0.955868
 H         3.935884         0.984042         2.283572
