19
Iteration:  1718
 C         4.467054        -1.698684         0.988968
 C         3.341264        -0.855334         0.446206
 O         2.049616        -1.578469         0.225701
 C         1.404464        -0.208922         0.069110
 C         0.007959         0.129505         0.486664
 C         2.047586         0.445896        -1.209567
 C         3.432458         0.519523        -0.477868
 C         2.674871         0.437882         0.759134
 O         2.772504         1.333717         1.862401
 H         4.803830        -2.443028         0.292918
 H         5.305713        -0.920571         1.167590
 H         4.177680        -2.178165         1.931862
 H        -0.709256         0.098669        -0.348685
 H        -0.508826        -0.638499         1.118323
 H        -0.244360         1.044229         1.054296
 H         2.000744        -0.167606        -2.124555
 H         1.856267         1.504124        -1.477580
 H         4.381097         0.832504        -0.987131
 H         2.046239         1.977570         1.642012
