19
Iteration:  1960charge 0 multiplicity 1
 C         4.387428        -1.580589         1.091917
 C         3.208879        -0.899082         0.471849
 O         1.869358        -1.427304         0.136218
 C         1.390459        -0.029718         0.095453
 C        -0.114943        -0.041375         0.440425
 C         2.075936         0.447285        -1.297672
 C         3.342418         0.300320        -0.545886
 C         2.776865         0.531810         0.826283
 O         3.129488         1.248775         1.918160
 H         4.396581        -2.613731         1.365268
 H         5.259663        -1.456288         0.377067
 H         4.802007        -1.031439         1.945708
 H        -0.355050         0.137712         1.550762
 H        -0.965206         0.508027        -0.071649
 H        -0.435679        -1.122253         0.351302
 H         1.824291        -0.234316        -2.107166
 H         1.967114         1.515157        -1.630599
 H         4.342047         0.651836        -0.854652
 H         3.145607         2.194448         1.643331
