19
Iteration:  3432charge 0 multiplicity 1
 C         4.355962        -1.865797         0.955980
 C         3.244646        -0.837959         0.482020
 O         1.976069        -1.451983         0.150785
 C         1.426027        -0.102538         0.099900
 C        -0.044464         0.019625         0.417621
 C         2.075350         0.447541        -1.176827
 C         3.426967         0.278072        -0.449445
 C         2.756752         0.458379         0.886628
 O         2.902720         1.550362         1.842243
 H         3.901181        -2.846675         0.824140
 H         5.349167        -1.726255         0.539617
 H         4.418134        -1.761095         2.038131
 H        -0.351930         0.973233         0.022042
 H        -0.436575        -0.806293        -0.220027
 H        -0.324488        -0.175696         1.425883
 H         2.042650        -0.174520        -2.084739
 H         1.749558         1.484236        -1.273016
 H         4.418892         0.795296        -0.648242
 H         3.044729         2.339599         1.328514
