19
Iteration:   478
 C         4.388289        -1.843658         0.686861
 C         3.361914        -0.887053         0.366816
 O         2.089960        -1.405189        -0.044088
 C         1.524525        -0.044871         0.031504
 C         0.033729         0.066157         0.229755
 C         2.213824         0.836622        -1.109497
 C         3.437685         0.719379        -0.227379
 C         2.666728         0.352357         0.986808
 O         2.440420         0.875534         2.229472
 H         3.909288        -2.524754         1.321054
 H         4.751475        -2.067912        -0.303502
 H         5.180206        -1.381322         1.162627
 H        -0.258560         0.796231         0.964431
 H        -0.372749         0.277125        -0.737274
 H        -0.215988        -0.944455         0.535510
 H         2.160951         0.440105        -2.128624
 H         1.825141         1.772046        -1.127401
 H         4.471528         1.166474        -0.456610
 H         3.297362         0.985245         2.659798
