19
Iteration:  3306
 C         4.240579        -1.706253         1.229321
 C         3.180451        -0.908327         0.611233
 O         1.897110        -1.347857         0.230713
 C         1.400768        -0.064148         0.029675
 C        -0.000659        -0.072988         0.552399
 C         2.078736         0.336946        -1.310284
 C         3.450349         0.303939        -0.652970
 C         2.772261         0.562123         0.721221
 O         3.067657         1.443319         1.752175
 H         5.231909        -1.360072         0.848120
 H         4.193461        -1.709808         2.322443
 H         4.077892        -2.764880         0.861154
 H        -0.005058        -0.625250         1.561058
 H        -0.442317         0.937479         0.656608
 H        -0.578689        -0.826594        -0.124205
 H         1.815627        -0.451903        -2.058238
 H         1.845463         1.312971        -1.780272
 H         4.433677         0.726374        -1.060721
 H         3.289678         2.266713         1.307723
