19
Iteration:   248charge 0 multiplicity 1
 C         4.365102        -1.836419         0.687245
 C         3.305929        -0.851823         0.457458
 O         2.132359        -1.427457        -0.114507
 C         1.529621         0.014067        -0.018816
 C         0.091393         0.097361         0.266632
 C         2.295283         0.849187        -1.146366
 C         3.501561         0.655302        -0.282906
 C         2.663409         0.320006         1.034921
 O         2.419230         0.881257         2.278182
 H         3.993231        -2.654433         1.307642
 H         4.687467        -2.240460        -0.298036
 H         5.356135        -1.524321         1.205467
 H        -0.168352         0.926479         0.967757
 H        -0.725803         0.156505        -0.537439
 H        -0.382109        -0.818423         0.813041
 H         2.371249         0.301413        -2.158954
 H         1.815064         1.718089        -1.297003
 H         4.425522         1.073588        -0.487849
 H         1.542867         1.262086         2.323174
