19
Iteration:   519charge 0 multiplicity 1
 C         4.272305        -1.791388         0.720043
 C         3.228222        -0.806177         0.406179
 O         2.076092        -1.325129        -0.217387
 C         1.458486         0.124953        -0.007479
 C        -0.007050        -0.200495         0.223577
 C         2.291541         0.785675        -1.184860
 C         3.473520         0.598208        -0.226792
 C         2.637917         0.401424         1.059611
 O         2.628146         0.997647         2.343940
 H         3.893305        -2.632365         1.397750
 H         4.849734        -2.215012        -0.171779
 H         5.164232        -1.407011         1.374887
 H        -0.331414        -0.493832         1.255389
 H        -0.778849         0.526213        -0.017852
 H        -0.127291        -1.196251        -0.322192
 H         2.244601         0.237547        -2.111662
 H         2.258191         1.956035        -1.289758
 H         4.565526         0.853288        -0.347758
 H         3.489128         0.714536         2.754020
