19
Iteration:  2615charge 0 multiplicity 1
 C         4.376599        -1.637359         1.135297
 C         3.315110        -0.845647         0.447596
 O         1.909238        -1.478224         0.353692
 C         1.415571        -0.165055         0.070356
 C         0.040538         0.185259         0.729617
 C         1.937972         0.219522        -1.356502
 C         3.379644         0.273378        -0.699229
 C         2.814894         0.511627         0.713866
 O         2.946179         1.505375         1.624416
 H         4.462678        -1.333973         2.176895
 H         4.082106        -2.686965         1.083710
 H         5.280712        -1.564776         0.560263
 H         0.379341         0.116857         1.834107
 H        -0.232176         1.168055         0.306580
 H        -0.755784        -0.617695         0.525254
 H         1.610275        -0.432547        -2.194760
 H         1.545204         1.243353        -1.484172
 H         4.399328         0.388274        -1.115802
 H         2.944841         1.231191         2.580880
