19
Iteration:  4979charge 0 multiplicity 1
 C         4.263364        -1.672798         1.005093
 C         3.295888        -0.773094         0.422951
 O         2.052067        -1.437030        -0.012761
 C         1.478968        -0.077409        -0.033966
 C         0.038096        -0.055796         0.389614
 C         2.070392         0.545813        -1.247405
 C         3.416750         0.557609        -0.408026
 C         2.670377         0.429613         0.869670
 O         2.821482         1.164590         2.095267
 H         4.164666        -2.564035         0.387332
 H         5.273867        -1.265189         0.795855
 H         4.066982        -1.869636         2.060284
 H        -0.596340        -0.696895        -0.277008
 H         0.015489        -0.476005         1.374627
 H        -0.469881         0.989957         0.288480
 H         1.801014         0.077755        -2.149367
 H         1.871542         1.630278        -1.377667
 H         4.463004         0.846436        -0.673405
 H         3.392395         0.682632         2.699914
