19
Iteration:    24charge 0 multiplicity 1
 C         4.290881        -1.854608         0.728577
 C         3.251473        -0.806958         0.409183
 O         2.076796        -1.287783        -0.190895
 C         1.489090         0.086092        -0.015529
 C         0.029841        -0.105436         0.309918
 C         2.337815         0.685183        -1.200178
 C         3.565494         0.581186        -0.251881
 C         2.664255         0.450137         1.032112
 O         2.491273         1.043157         2.307929
 H         3.884211        -2.715289         1.346072
 H         4.515671        -2.309953        -0.266312
 H         5.189564        -1.524682         1.168729
 H        -0.070652        -0.163984         1.452170
 H        -0.613193         0.723301        -0.011040
 H        -0.291969        -1.051792        -0.109318
 H         2.423752         0.049620        -2.172935
 H         2.261952         1.654558        -1.525254
 H         4.534405         0.983258        -0.385810
 H         2.290972         0.295733         2.914620
