19
Iteration:  2721
 C         4.480036        -1.590231         0.861790
 C         3.203262        -0.871536         0.613264
 O         1.876663        -1.457229         0.458830
 C         1.348143        -0.148038         0.194205
 C        -0.145144         0.052659         0.426147
 C         2.013036         0.143741        -1.235256
 C         3.372651         0.138818        -0.620016
 C         2.754949         0.624697         0.690266
 O         3.160561         1.644552         1.714564
 H         5.397975        -1.074213         0.500180
 H         4.626311        -1.899332         2.000213
 H         4.441899        -2.612581         0.391646
 H        -0.616111        -0.439918         1.247004
 H        -0.328320         1.101754         0.520538
 H        -0.471717        -0.326108        -0.527691
 H         1.635284        -0.579774        -1.976329
 H         1.615389         1.167927        -1.469994
 H         4.377236         0.581522        -0.834680
 H         3.172167         1.333300         2.640136
