19
Iteration:  4470charge 0 multiplicity 1
 C         4.294340        -1.849952         0.929798
 C         3.278180        -0.828897         0.498177
 O         1.987163        -1.446992         0.198501
 C         1.463436        -0.088151         0.049181
 C        -0.039469        -0.180480         0.358386
 C         2.127680         0.559779        -1.230631
 C         3.445563         0.537595        -0.469023
 C         2.768132         0.521972         0.877895
 O         2.801408         1.440589         1.894541
 H         4.575747        -2.492869         0.106044
 H         5.213374        -1.181837         1.080585
 H         4.130763        -2.611081         1.643861
 H        -0.426397        -1.154359         0.070200
 H        -0.010647        -0.082923         1.402554
 H        -0.786082         0.602464        -0.002967
 H         1.999001         0.056737        -2.253358
 H         1.946190         1.631035        -1.249766
 H         4.428197         0.769358        -0.749356
 H         3.021879         0.957074         2.725120
