19
Iteration:  3238charge 0 multiplicity 1
 C         4.530320        -1.789545         0.925785
 C         3.274868        -0.982354         0.630004
 O         1.858828        -1.476402         0.555568
 C         1.421557        -0.047164         0.086768
 C        -0.079785         0.231460         0.355484
 C         2.052644         0.249545        -1.309593
 C         3.318568         0.176181        -0.543915
 C         2.701534         0.474540         0.813548
 O         2.979634         1.609222         1.701033
 H         5.125029        -1.053057         1.513736
 H         4.494873        -2.811692         1.322425
 H         5.351479        -1.842731         0.169753
 H        -0.511766        -0.650974         0.840292
 H        -0.163597         1.183895         1.003132
 H        -0.701996         0.318280        -0.644646
 H         1.825094        -0.574654        -2.036177
 H         1.887562         1.283434        -1.622968
 H         4.315598         0.406183        -0.724992
 H         3.085781         2.305259         1.019880
