19
Iteration:  1474charge 0 multiplicity 1
 C         4.411007        -1.739920         0.904020
 C         3.250835        -0.825574         0.509649
 O         2.074559        -1.443344        -0.022997
 C         1.425867        -0.067707        -0.042600
 C        -0.026765        -0.104302         0.414724
 C         2.137743         0.538778        -1.278691
 C         3.445842         0.523086        -0.402854
 C         2.706621         0.472534         0.954191
 O         2.754145         1.246281         2.103560
 H         5.156387        -1.025344         1.349685
 H         4.055851        -2.424622         1.636937
 H         4.833401        -2.195062         0.030864
 H        -0.131884        -0.055183         1.502396
 H        -0.691151         0.666586         0.002203
 H        -0.489192        -1.062592         0.213599
 H         2.031794        -0.247826        -2.017476
 H         1.863710         1.499163        -1.687187
 H         4.514940         0.885551        -0.580217
 H         2.152801         1.989488         1.988088
