19
Iteration:  3717
 C         4.481992        -1.636824         0.748485
 C         3.287956        -0.826908         0.434306
 O         1.927036        -1.512991         0.210609
 C         1.353496        -0.086711         0.049240
 C        -0.087785         0.134044         0.179137
 C         2.142457         0.476110        -1.251159
 C         3.390652         0.443009        -0.389780
 C         2.743467         0.437663         0.952812
 O         2.853332         1.117244         2.205472
 H         4.912189        -2.128672        -0.179985
 H         5.319488        -1.065891         1.056033
 H         4.284821        -2.437918         1.445624
 H        -0.243476         1.190462         0.159009
 H        -0.726560        -0.303855        -0.609752
 H        -0.427824        -0.040813         1.257100
 H         2.178175        -0.157735        -2.151871
 H         1.893845         1.496815        -1.502648
 H         4.381993         0.858841        -0.505704
 H         2.954954         2.062918         2.141894
