19
Iteration:  3005charge 0 multiplicity 1
 C         4.342794        -1.646658         1.225514
 C         3.314553        -0.870183         0.458888
 O         1.940764        -1.508028         0.302980
 C         1.432799        -0.083640         0.130228
 C         0.118114         0.222580         0.748530
 C         1.980274         0.202869        -1.337727
 C         3.431187         0.192098        -0.650194
 C         2.688937         0.457949         0.654624
 O         2.953433         1.524876         1.526982
 H         4.963413        -0.997989         1.767588
 H         3.751323        -2.298155         1.850598
 H         4.931530        -2.283816         0.623983
 H        -0.074944        -0.278243         1.764853
 H        -0.018974         1.298038         0.961414
 H        -0.661712        -0.083440         0.043307
 H         1.681787        -0.554730        -2.095622
 H         1.686586         1.216901        -1.603507
 H         4.387164         0.640936        -0.815976
 H         2.117228         1.810700         1.877395
