19
Iteration:  2171charge 0 multiplicity 1
 C         4.301071        -1.639145         1.129996
 C         3.161244        -0.905652         0.456916
 O         1.957364        -1.466756         0.279983
 C         1.375396        -0.014984         0.101942
 C        -0.128049        -0.000916         0.564267
 C         2.006485         0.394042        -1.287588
 C         3.346214         0.173125        -0.573206
 C         2.767115         0.478979         0.834805
 O         3.240442         1.440803         1.686461
 H         4.596748        -1.013979         1.986410
 H         4.174350        -2.691616         1.244535
 H         5.090308        -1.469578         0.395489
 H        -0.139752        -0.740812         1.409996
 H        -0.419395         1.010195         0.961015
 H        -0.864189        -0.256802        -0.268388
 H         1.768099        -0.042967        -2.260315
 H         2.010525         1.495054        -1.391428
 H         4.326615         0.428881        -1.042690
 H         3.110761         2.306900         1.205534
