19
Iteration:  4982
 C         4.257986        -1.671061         1.021036
 C         3.299890        -0.795929         0.401103
 O         2.043957        -1.435801        -0.033323
 C         1.488438        -0.059254        -0.036691
 C         0.022915        -0.078848         0.412756
 C         2.069530         0.547573        -1.254981
 C         3.413348         0.549575        -0.417066
 C         2.693689         0.441741         0.873853
 O         2.816886         1.194076         2.099082
 H         4.072781        -2.610250         0.476757
 H         5.331821        -1.411948         0.781962
 H         4.080038        -1.956254         2.044335
 H        -0.588750        -0.653453        -0.335049
 H         0.148087        -0.549099         1.402485
 H        -0.522680         0.917814         0.384276
 H         1.868964         0.053856        -2.298042
 H         1.841036         1.657861        -1.323031
 H         4.480857         0.941678        -0.534785
 H         3.329752         0.717556         2.771193
