19
Iteration:   143
 C         4.304078        -1.806000         0.775245
 C         3.256512        -0.714265         0.420801
 O         2.023422        -1.255750        -0.095040
 C         1.421617         0.023748        -0.013401
 C        -0.101509        -0.082205        -0.071517
 C         2.211508         0.768722        -1.082641
 C         3.461903         0.627321        -0.321720
 C         2.642880         0.472498         1.076254
 O         2.855368         0.802551         2.454735
 H         3.830075        -2.608918         1.374128
 H         4.725184        -2.275469        -0.115818
 H         5.032432        -1.437456         1.425770
 H        -0.538891         0.631239        -0.703315
 H        -0.173405        -1.035828        -0.543374
 H        -0.470583        -0.133637         0.903484
 H         2.312412         0.220262        -1.952702
 H         1.996275         1.911202        -1.412197
 H         4.469446         0.960939        -0.562869
 H         3.155631        -0.010162         2.876910
