19
Iteration:  4690
 C         4.303743        -1.756472         1.009376
 C         3.301654        -0.843922         0.410359
 O         2.005939        -1.453220        -0.011226
 C         1.465614        -0.142914         0.003454
 C         0.019628        -0.129373         0.517148
 C         2.185798         0.718248        -1.255424
 C         3.453950         0.599156        -0.400398
 C         2.655831         0.394507         0.836209
 O         2.789931         1.226341         1.903075
 H         4.986036        -2.166791         0.274958
 H         4.826323        -1.181226         1.818187
 H         3.855136        -2.474954         1.690795
 H        -0.475115        -1.116114         0.266189
 H        -0.030940         0.104251         1.623799
 H        -0.513265         0.738538         0.095902
 H         1.975239         0.343138        -2.257827
 H         1.898922         1.746679        -1.109020
 H         4.408454         0.999986        -0.526054
 H         2.469156         1.005465         2.815277
