19
Iteration:   873charge 0 multiplicity 1
 C         4.428813        -1.869650         0.770446
 C         3.334837        -0.755273         0.436304
 O         2.160949        -1.378057         0.034329
 C         1.562102        -0.089341         0.048902
 C         0.027205        -0.172772         0.230592
 C         2.109518         0.622045        -1.164545
 C         3.413384         0.595855        -0.300082
 C         2.629693         0.451324         0.992339
 O         2.479104         1.232847         2.122837
 H         3.738428        -2.641639         1.024170
 H         5.011715        -2.166891        -0.162991
 H         5.191149        -1.665322         1.545691
 H        -0.338828        -0.716423         1.191760
 H        -0.352960         0.909955         0.371044
 H        -0.427181        -0.686340        -0.670152
 H         2.274964         0.188013        -2.129456
 H         1.698107         1.647845        -1.190058
 H         4.284079         1.012806        -0.635900
 H         3.371828         1.500323         2.408867
