19
Iteration:  2384
 C         4.449394        -1.553501         0.993170
 C         3.255537        -0.875192         0.465783
 O         1.872599        -1.485568         0.478207
 C         1.418132        -0.030595         0.259363
 C        -0.032680         0.257996         0.313858
 C         1.944279         0.152133        -1.178818
 C         3.289079         0.289936        -0.700814
 C         2.853865         0.465527         0.736182
 O         3.072569         1.379331         1.751123
 H         4.521652        -1.538404         2.075798
 H         4.290453        -2.603068         0.616253
 H         5.251759        -1.085031         0.471994
 H        -0.473480        -0.196277         1.278266
 H        -0.397568         1.314604         0.318447
 H        -0.714981        -0.158874        -0.475795
 H         1.780865        -0.674949        -1.870714
 H         1.372607         1.039773        -1.505500
 H         4.193631         0.534461        -1.277696
 H         3.690983         1.035691         2.468704
