19
Iteration:  3996
 C         4.194123        -1.791399         1.165027
 C         3.326329        -0.811061         0.341191
 O         1.984907        -1.444844        -0.003139
 C         1.417707        -0.132893         0.069844
 C         0.028073        -0.181214         0.577254
 C         2.211383         0.701958        -1.396601
 C         3.407837         0.513161        -0.529544
 C         2.735260         0.473497         0.831222
 O         2.824274         1.250775         2.018909
 H         3.855593        -2.824592         1.387630
 H         5.112131        -1.980660         0.549174
 H         4.533847        -1.318646         2.117625
 H        -0.002017         0.394425         1.588159
 H        -0.774871         0.207352        -0.150451
 H        -0.195804        -1.244164         0.865931
 H         1.981145         0.043473        -2.206968
 H         1.996200         1.778490        -1.606628
 H         4.333836         1.049041        -0.878371
 H         3.129161         2.173973         1.801813
