19
Iteration:  1105
 C         4.367158        -1.618160         0.588130
 C         3.219768        -0.767511         0.610827
 O         1.992568        -1.409601         0.076099
 C         1.482011        -0.080251        -0.005929
 C         0.004154        -0.085380         0.308810
 C         2.410708         0.506210        -1.302564
 C         3.463069         0.583783        -0.310454
 C         2.613939         0.491566         0.984917
 O         2.594925         1.035892         2.215242
 H         4.085365        -2.634993         0.837856
 H         4.902668        -1.597855        -0.285157
 H         5.045139        -1.458654         1.402069
 H        -0.115024         0.164912         1.378816
 H        -0.508860         0.795900        -0.171751
 H        -0.388227        -1.079793         0.021802
 H         2.609313        -0.369853        -1.985990
 H         2.144223         1.403563        -1.823980
 H         4.541406         0.841531        -0.328876
 H         2.311176         1.988612         2.249255
