19
Iteration:  2675
 C         4.294530        -1.852731         1.005359
 C         3.348595        -0.857957         0.492183
 O         1.964730        -1.480404         0.376130
 C         1.404488        -0.109349         0.211529
 C         0.014409        -0.012581         0.574882
 C         1.955227         0.245003        -1.209406
 C         3.378857         0.297225        -0.587524
 C         2.782878         0.609407         0.723246
 O         3.019517         1.701934         1.538694
 H         5.051358        -1.282926         1.560649
 H         3.874809        -2.756556         1.541265
 H         4.969709        -2.191999         0.176616
 H        -0.149619         0.099895         1.625952
 H        -0.456109         0.907915         0.241857
 H        -0.566381        -0.815227         0.209847
 H         1.676908        -0.492541        -1.939169
 H         1.665867         1.253786        -1.515536
 H         4.203166         0.791061        -1.029804
 H         2.609454         1.566686         2.388813
