19
Iteration:  3959
 C         4.284458        -1.712196         1.133703
 C         3.298035        -0.893365         0.378103
 O         2.087078        -1.505584        -0.109198
 C         1.484009        -0.107461        -0.011056
 C         0.116030         0.006067         0.558278
 C         2.058729         0.653017        -1.191454
 C         3.422302         0.392547        -0.518649
 C         2.626478         0.399592         0.865118
 O         2.729058         1.272128         2.023210
 H         3.728982        -2.367212         1.800009
 H         4.856813        -2.292499         0.302635
 H         5.067541        -1.113671         1.625653
 H         0.122359         0.686356         1.404881
 H        -0.538995         0.372299        -0.178508
 H        -0.162019        -0.998480         0.814764
 H         1.985166         0.179123        -2.225271
 H         1.940527         1.722076        -1.347945
 H         4.310148         0.960738        -0.627113
 H         2.913781         2.158534         1.659292
