19
Iteration:  2258charge 0 multiplicity 1
 C         4.426080        -1.726700         0.844935
 C         3.233463        -0.904984         0.473542
 O         1.830418        -1.422500         0.446846
 C         1.408957         0.048222         0.055630
 C         0.087307         0.256273         0.648411
 C         2.050901         0.158337        -1.374228
 C         3.416076         0.174528        -0.564336
 C         2.774392         0.520284         0.775885
 O         2.916759         1.466210         1.790191
 H         4.157137        -2.589451         1.480704
 H         4.866236        -2.047365        -0.079713
 H         5.227667        -1.170564         1.366053
 H         0.321658         0.393907         1.700737
 H        -0.556823         1.040489         0.266071
 H        -0.492323        -0.684077         0.710360
 H         1.999140        -0.836694        -1.833283
 H         1.808396         0.971968        -2.073617
 H         4.482784         0.207661        -0.910711
 H         2.228418         2.150891         1.695045
