19
Iteration:  2299
 C         4.318277        -1.868604         1.091975
 C         3.364499        -0.851059         0.467605
 O         1.997429        -1.520276         0.331801
 C         1.485199        -0.088194         0.097610
 C         0.083863         0.188552         0.608300
 C         1.858150         0.385929        -1.251580
 C         3.336241         0.228102        -0.646076
 C         2.687463         0.456931         0.835079
 O         3.038600         1.575187         1.545452
 H         3.737579        -2.571884         1.811823
 H         4.921056        -2.608009         0.447148
 H         5.114667        -1.452922         1.753727
 H         0.101073         0.065940         1.722599
 H        -0.208232         1.189623         0.419269
 H        -0.641149        -0.541412         0.270481
 H         1.260280         0.042236        -2.109889
 H         1.792409         1.525824        -1.181880
 H         4.332592         0.551371        -0.975812
 H         2.186668         1.943599         1.787047
