19
Iteration:  2866charge 0 multiplicity 1
 C         4.414824        -1.791658         0.907430
 C         3.301822        -0.839489         0.560001
 O         2.014643        -1.432920         0.435784
 C         1.461835        -0.092261         0.151059
 C        -0.113206         0.173995         0.503842
 C         1.956627         0.133603        -1.224935
 C         3.356447         0.232955        -0.635066
 C         2.859860         0.568511         0.752979
 O         2.907759         1.581902         1.741231
 H         5.356729        -1.163491         0.867433
 H         4.378678        -2.456523         1.875051
 H         4.522096        -2.629953         0.147710
 H        -0.189691         0.453108         1.567068
 H        -0.559503         0.897320        -0.163039
 H        -0.545839        -0.807134         0.366849
 H         1.609768        -0.787759        -1.792794
 H         1.691894         1.127431        -1.616661
 H         4.297587         0.408326        -1.057817
 H         2.593434         2.396291         1.227976
