19
Iteration:  1062
 C         4.518038        -1.778328         0.743030
 C         3.365763        -0.842431         0.412883
 O         2.100972        -1.426286         0.085441
 C         1.399930        -0.130647         0.093332
 C        -0.028629        -0.045656         0.131552
 C         2.159913         0.644818        -1.152639
 C         3.397014         0.519489        -0.291090
 C         2.653169         0.441458         1.003604
 O         2.606759         1.157485         2.203240
 H         4.058107        -2.605790         1.285294
 H         4.913898        -2.069065        -0.137422
 H         5.233027        -1.270108         1.349635
 H        -0.631878        -0.381667         0.964217
 H        -0.263026         1.043478         0.053553
 H        -0.347054        -0.457528        -0.832460
 H         2.115967         0.023172        -2.052449
 H         1.842793         1.607412        -1.273589
 H         4.320569         1.076380        -0.611017
 H         2.615468         2.061887         1.792900
