19
Iteration:  2012
 C         4.271690        -1.795775         1.095079
 C         3.292415        -0.836147         0.417448
 O         2.023056        -1.436064         0.289139
 C         1.409576        -0.201686         0.046728
 C         0.002554         0.012258         0.479484
 C         1.963747         0.368301        -1.251703
 C         3.410933         0.484980        -0.668989
 C         2.749551         0.518227         0.786564
 O         3.013707         1.391519         1.911106
 H         4.519371        -2.539916         0.300076
 H         5.349108        -1.423795         1.437171
 H         3.706579        -2.369934         1.902768
 H        -0.112672         0.064326         1.540221
 H        -0.331852         1.044247         0.233081
 H        -0.737719        -0.693628         0.121099
 H         1.576131        -0.236120        -2.144675
 H         1.519177         1.371848        -1.414012
 H         4.248967         1.099611        -1.029129
 H         3.244125         2.232682         1.425551
