19
Iteration:   915
 C         4.609940        -1.528485         0.790405
 C         3.244118        -0.863496         0.550949
 O         2.016461        -1.462696        -0.078558
 C         1.460323        -0.127694        -0.049135
 C        -0.027795         0.025969         0.284223
 C         2.263874         0.630285        -1.128121
 C         3.423348         0.356306        -0.314625
 C         2.560871         0.323610         1.029375
 O         2.560198         1.157528         2.122068
 H         4.582522        -2.299167         1.490758
 H         4.965733        -1.827941        -0.235439
 H         5.219683        -0.683722         1.051205
 H        -0.453131        -0.958701         0.621540
 H        -0.206036         0.735156         1.124511
 H        -0.737722         0.045544        -0.550121
 H         2.227800         0.087410        -2.042407
 H         2.102230         1.753773        -1.275331
 H         4.420437         0.652567        -0.379121
 H         2.988991         2.007642         1.974626
