19
Iteration:  1867charge 0 multiplicity 1
 C         4.395362        -1.702269         0.881030
 C         3.220098        -0.882540         0.594775
 O         1.951417        -1.464905         0.259509
 C         1.416051        -0.155131         0.028579
 C         0.079563         0.026262         0.562032
 C         2.168144         0.507453        -1.339039
 C         3.423916         0.320952        -0.502603
 C         2.725035         0.502523         0.802058
 O         2.768925         1.393820         1.877280
 H         4.893689        -1.555651         1.911643
 H         4.091731        -2.729513         0.842094
 H         5.121721        -1.624457        -0.004981
 H        -0.069036        -0.912321         1.119544
 H         0.009807         0.771925         1.340072
 H        -0.834084         0.114995        -0.054664
 H         2.069554        -0.133228        -2.294668
 H         1.878201         1.530081        -1.601969
 H         4.485091         0.443977        -0.891879
 H         2.452282         2.265324         1.557820
