19
Iteration:   558
 C         4.414703        -1.752788         0.879530
 C         3.310004        -0.839588         0.349447
 O         2.183398        -1.486503        -0.195456
 C         1.455894        -0.069902         0.003207
 C        -0.072894         0.034156         0.146586
 C         2.114481         0.911784        -1.026615
 C         3.412864         0.557269        -0.261713
 C         2.641716         0.301020         0.972332
 O         2.714782         1.011460         2.205899
 H         3.954782        -2.483476         1.558352
 H         4.732796        -2.521953         0.225121
 H         5.222296        -1.189362         1.368532
 H        -0.535659        -0.808467         0.688793
 H        -0.211728         0.963547         0.777313
 H        -0.500397         0.186411        -0.837435
 H         2.028232         0.778756        -2.139161
 H         1.708999         1.877478        -0.698818
 H         4.320728         1.068700        -0.366856
 H         2.360085         0.459297         2.924406
