19
Iteration:  3118charge 0 multiplicity 1
 C         4.352677        -1.694758         1.145707
 C         3.177376        -0.844840         0.582984
 O         1.871380        -1.448009         0.322312
 C         1.350750        -0.012182         0.059523
 C        -0.133831         0.011239         0.541300
 C         2.115614         0.279931        -1.293161
 C         3.402119         0.213688        -0.570471
 C         2.808188         0.572038         0.708491
 O         3.155148         1.451571         1.631950
 H         5.324459        -1.382054         0.739922
 H         4.442279        -1.493768         2.226410
 H         4.221072        -2.774466         1.013887
 H        -0.154172         0.366392         1.556709
 H        -0.818495         0.736723         0.023148
 H        -0.363505        -1.080844         0.426576
 H         1.965382        -0.316213        -2.209481
 H         1.925122         1.262531        -1.698735
 H         4.421785         0.570290        -0.691914
 H         2.508329         2.195504         1.675694
