19
Iteration:  3200
 C         4.379361        -1.586139         1.108299
 C         3.155141        -0.871941         0.547504
 O         1.960194        -1.553723         0.410043
 C         1.430225        -0.048053         0.092864
 C         0.108798         0.348268         0.512209
 C         1.975446         0.110781        -1.390315
 C         3.355585         0.201342        -0.647596
 C         2.758718         0.516452         0.737103
 O         2.896133         1.398465         1.750059
 H         4.861240        -0.761128         1.728339
 H         4.207605        -2.549585         1.699279
 H         5.164668        -1.744559         0.309408
 H        -0.301102        -0.421181         1.205007
 H         0.136600         1.301813         1.003840
 H        -0.586319         0.456809        -0.272612
 H         1.822086        -0.810146        -1.972378
 H         1.736585         1.090578        -1.892691
 H         4.405462         0.341359        -1.127475
 H         3.650069         1.966246         1.667779
