19
Iteration:  3446
 C         4.287366        -1.906008         1.043607
 C         3.312683        -1.026605         0.436953
 O         1.995416        -1.518630         0.141015
 C         1.436682        -0.149016         0.124455
 C        -0.090205        -0.084942         0.361342
 C         2.099282         0.602757        -1.115158
 C         3.420707         0.428156        -0.465116
 C         2.735938         0.529907         0.916972
 O         2.927909         1.602179         1.783436
 H         3.967879        -2.964884         0.952779
 H         5.191013        -1.896878         0.444872
 H         4.557589        -1.652231         2.107734
 H        -0.536542         0.741858        -0.095002
 H        -0.733898        -0.878951         0.110389
 H        -0.235176         0.188916         1.437365
 H         1.752761         0.267253        -2.126191
 H         1.864896         1.662786        -1.130907
 H         4.398029         0.594581        -0.905486
 H         3.340026         2.311407         1.206460
