19
Iteration:  2601charge 0 multiplicity 1
 C         4.397367        -1.611391         1.099329
 C         3.276042        -0.858793         0.451007
 O         2.058366        -1.525508         0.364438
 C         1.424656        -0.110059         0.202327
 C         0.070985         0.231913         0.621743
 C         1.890887         0.248949        -1.360420
 C         3.245183         0.140184        -0.755402
 C         2.708654         0.511930         0.700600
 O         3.002656         1.516457         1.713892
 H         4.450308        -1.431152         2.195961
 H         4.171049        -2.756761         1.051982
 H         5.423743        -1.369374         0.814770
 H        -0.183262         0.299767         1.693614
 H        -0.115480         1.280130         0.325481
 H        -0.736355        -0.358451         0.161621
 H         1.703874        -0.543227        -2.113470
 H         1.726557         1.273997        -1.804563
 H         4.095605         0.596188        -1.174717
 H         3.093134         0.964133         2.506356
