19
Iteration:   932
 C         4.559599        -1.528437         0.868121
 C         3.305720        -0.888842         0.438896
 O         2.043093        -1.502902        -0.036048
 C         1.420934        -0.080897         0.019917
 C         0.016053         0.039019         0.244025
 C         2.136125         0.589776        -1.195519
 C         3.450701         0.471880        -0.323032
 C         2.611542         0.341130         0.956151
 O         2.601789         1.066490         2.182909
 H         4.472946        -2.127855         1.872218
 H         4.925928        -2.224255         0.141905
 H         5.360722        -0.783261         1.064906
 H        -0.430532        -0.884595         0.586077
 H        -0.049167         0.787279         1.025683
 H        -0.423473         0.534170        -0.631588
 H         2.017493         0.196238        -2.269189
 H         1.751064         1.595907        -1.197524
 H         4.456879         1.028569        -0.498883
 H         2.350921         1.958745         1.887258
