19
Iteration:  2365
 C         4.413065        -1.623466         0.990904
 C         3.212702        -0.801951         0.531472
 O         1.920071        -1.414218         0.470830
 C         1.312081        -0.093723         0.110794
 C        -0.132418         0.099851         0.450286
 C         1.976705         0.207332        -1.365149
 C         3.336611         0.187958        -0.632569
 C         2.758337         0.607228         0.711427
 O         3.194854         1.424502         1.807929
 H         4.468270        -1.695090         2.152009
 H         4.327801        -2.710951         0.626859
 H         5.265937        -1.006795         0.609115
 H        -0.476418        -0.422025         1.353906
 H        -0.146043         1.165793         0.660778
 H        -0.798396        -0.071626        -0.443194
 H         1.587663        -0.559147        -2.052165
 H         1.848682         1.245221        -1.812832
 H         4.372246         0.304246        -0.994220
 H         3.952632         1.035306         2.305958
