19
Iteration:  4620
 C         4.417511        -1.752676         0.731724
 C         3.249981        -0.811640         0.534210
 O         2.033670        -1.485064         0.239794
 C         1.389920        -0.126237         0.036568
 C        -0.091202        -0.098668         0.233798
 C         2.178798         0.496951        -1.244924
 C         3.444073         0.526493        -0.363280
 C         2.663081         0.473452         0.930304
 O         2.838405         1.404083         1.996297
 H         4.876718        -1.966147        -0.256357
 H         5.047728        -1.616872         1.610893
 H         3.982806        -2.619839         1.263618
 H        -0.618936        -0.547223        -0.608633
 H        -0.477631        -0.517375         1.115090
 H        -0.312494         1.008771         0.352716
 H         2.100970         0.129101        -2.237633
 H         1.813399         1.531809        -1.117445
 H         4.459861         0.904658        -0.648508
 H         2.915313         0.943817         2.880024
