19
Iteration:   844charge 0 multiplicity 1
 C         4.348723        -1.848845         0.886426
 C         3.370198        -0.772400         0.397755
 O         2.170147        -1.367450        -0.050643
 C         1.550640        -0.053822         0.040747
 C        -0.024754        -0.234152         0.260126
 C         2.075556         0.692513        -1.132723
 C         3.486207         0.627949        -0.429712
 C         2.729365         0.479358         0.968205
 O         2.493318         1.152863         2.181735
 H         3.586563        -2.591491         1.347054
 H         4.735246        -2.307243        -0.019786
 H         5.138918        -1.599968         1.664541
 H        -0.334264        -0.168284         1.291482
 H        -0.613973         0.509152        -0.265673
 H        -0.334493        -1.205532        -0.062467
 H         2.228580         0.188378        -2.144115
 H         1.648910         1.684676        -1.199258
 H         4.327512         1.292368        -0.755778
 H         3.334621         1.389637         2.586499
