19
Iteration:  1293charge 0 multiplicity 1
 C         4.477069        -1.590811         0.787718
 C         3.260111        -0.920139         0.550833
 O         2.061658        -1.475058        -0.122507
 C         1.444092        -0.120489        -0.012070
 C        -0.060725         0.024374         0.386818
 C         2.251087         0.582809        -1.252733
 C         3.446598         0.478345        -0.250819
 C         2.602658         0.336722         0.981278
 O         2.559234         1.225962         2.102178
 H         4.570287        -2.525730         1.442886
 H         5.133998        -1.918089        -0.024261
 H         5.142348        -0.890714         1.332777
 H        -0.099087        -0.970100         0.915838
 H        -0.183444         0.748850         1.249057
 H        -0.774942         0.137081        -0.504766
 H         2.265756        -0.079192        -2.167234
 H         1.954574         1.586353        -1.501694
 H         4.498840         0.925223        -0.226987
 H         3.255949         1.914907         1.944838
