19
Iteration:  2827
 C         4.325695        -1.689242         1.060020
 C         3.193605        -0.866845         0.534325
 O         1.955786        -1.494364         0.364995
 C         1.344904        -0.130795         0.095185
 C         0.022377         0.057370         0.761933
 C         2.102346         0.293516        -1.352218
 C         3.458261         0.321768        -0.692290
 C         2.785141         0.506275         0.673246
 O         2.863378         1.540573         1.607231
 H         5.214729        -1.318350         0.614985
 H         4.373926        -1.382950         2.053593
 H         4.264381        -2.754351         0.973851
 H         0.369174        -0.087086         1.785425
 H        -0.558326         1.029983         0.676727
 H        -0.786419        -0.719981         0.728252
 H         1.998794        -0.455820        -2.123145
 H         1.693855         1.247647        -1.697949
 H         4.572388         0.341005        -0.902579
 H         3.721439         1.901096         1.790048
