19
Iteration:  4436
 C         4.510535        -1.701484         0.781631
 C         3.272002        -0.843083         0.546790
 O         1.993315        -1.495204         0.198186
 C         1.369996        -0.109140         0.130825
 C        -0.067215         0.076045         0.177527
 C         2.038413         0.335473        -1.153907
 C         3.392305         0.427575        -0.409385
 C         2.712373         0.454758         0.981988
 O         2.925737         1.409790         1.962426
 H         4.945453        -1.740879        -0.236950
 H         5.306781        -1.113380         1.283909
 H         4.411727        -2.561956         1.394190
 H        -0.592338        -0.713360        -0.335031
 H        -0.394039        -0.026962         1.180060
 H        -0.242813         1.100313        -0.314441
 H         1.729167        -0.287187        -2.031446
 H         1.706225         1.359889        -1.441208
 H         4.300656         0.733370        -0.823155
 H         2.154277         1.375913         2.527664
