19
Iteration:  2008
 C         4.263374        -1.750623         1.089477
 C         3.247523        -0.848877         0.433536
 O         2.041938        -1.455773         0.272494
 C         1.379953        -0.176771         0.057241
 C        -0.015223        -0.037747         0.493676
 C         1.991796         0.422164        -1.247070
 C         3.411073         0.456392        -0.676968
 C         2.775836         0.542287         0.773401
 O         3.036166         1.380503         1.901735
 H         4.355161        -2.644658         0.419907
 H         5.212460        -1.542530         1.444691
 H         3.830210        -2.218211         1.975300
 H        -0.111554         0.093981         1.577445
 H        -0.361652         0.902883         0.088507
 H        -0.803683        -0.733601         0.197458
 H         1.731111        -0.149851        -2.136326
 H         1.571021         1.398970        -1.383047
 H         4.235321         1.052240        -1.066989
 H         3.216345         2.202541         1.445533
