19
Iteration:  2562
 C         4.518495        -1.550519         0.965464
 C         3.179806        -0.881238         0.489504
 O         1.847846        -1.440660         0.584126
 C         1.349971        -0.065982         0.145374
 C        -0.060623         0.171052         0.501802
 C         1.972960         0.123920        -1.361715
 C         3.276196         0.247542        -0.649287
 C         2.769840         0.520329         0.717812
 O         3.176506         1.436899         1.703264
 H         4.317037        -1.952566         1.971364
 H         4.932335        -2.146395         0.213179
 H         5.206774        -0.698186         0.996407
 H        -0.640875        -0.277425         1.378071
 H        -0.060127         1.271888         0.553754
 H        -0.484622        -0.130492        -0.500656
 H         1.871841        -0.724073        -2.061003
 H         1.599351         1.013038        -1.856858
 H         4.253731         0.478578        -1.102855
 H         3.300741         0.889482         2.537310
