19
Iteration:  3082charge 0 multiplicity 1
 C         4.365072        -1.852271         0.898630
 C         3.335590        -0.783992         0.602650
 O         1.899525        -1.448500         0.527681
 C         1.454723        -0.121961         0.231373
 C        -0.060553         0.104595         0.192144
 C         1.902527         0.141036        -1.236870
 C         3.326453         0.278610        -0.591218
 C         2.828941         0.677513         0.722104
 O         3.047628         1.557923         1.831951
 H         5.306065        -1.696453         0.507658
 H         4.479120        -1.638961         1.952248
 H         4.117029        -2.847796         0.776757
 H        -0.334841         0.419963         1.250549
 H        -0.400678         0.639616        -0.711634
 H        -0.571079        -0.852086         0.160464
 H         1.830352        -0.678888        -1.905223
 H         1.678555         1.158195        -1.422098
 H         4.282341         0.431722        -1.200088
 H         3.393700         2.440613         1.455877
