19
Iteration:   753
 C         4.431378        -1.670726         0.836045
 C         3.340437        -0.745876         0.437824
 O         2.132974        -1.449387         0.045805
 C         1.454542        -0.149935        -0.021377
 C         0.005618         0.011100         0.175895
 C         2.135930         0.698756        -1.188269
 C         3.416972         0.673187        -0.370531
 C         2.641635         0.452376         0.944191
 O         2.636986         0.829696         2.268141
 H         4.024582        -2.237362         1.734474
 H         4.773371        -2.250713        -0.172366
 H         5.390165        -1.078032         1.152134
 H        -0.150791         1.157447         0.115241
 H        -0.463359        -0.396437        -0.795407
 H        -0.380008        -0.376554         1.184966
 H         2.220768        -0.000999        -2.178594
 H         1.453547         1.603488        -1.336712
 H         4.437236         1.115115        -0.518144
 H         2.025567         1.578477         2.464097
