19
Iteration:  1953charge 0 multiplicity 1
 C         4.421107        -1.551449         1.062622
 C         3.189956        -0.859843         0.442355
 O         1.925406        -1.439671         0.186480
 C         1.367203        -0.064973         0.084906
 C        -0.150492         0.004424         0.445050
 C         2.041453         0.425076        -1.315136
 C         3.399875         0.345062        -0.517482
 C         2.726267         0.480011         0.799933
 O         3.120005         1.243540         1.941981
 H         4.173122        -2.617944         1.381414
 H         5.176396        -1.685433         0.333123
 H         4.839754        -1.041326         1.975205
 H        -0.208708         0.158245         1.543562
 H        -0.718600         0.625845        -0.248196
 H        -0.431384        -1.025765         0.248899
 H         1.801302        -0.228611        -2.156498
 H         1.807394         1.473031        -1.499324
 H         4.431380         0.419250        -0.906677
 H         3.225643         2.159543         1.676639
