19
Iteration:  3536charge 0 multiplicity 1
 C         4.433293        -1.595752         0.852059
 C         3.225506        -0.825667         0.535485
 O         2.031405        -1.488051         0.245177
 C         1.404959        -0.079503         0.091367
 C        -0.035523         0.275828         0.320188
 C         2.102088         0.389462        -1.236061
 C         3.439781         0.363461        -0.526748
 C         2.697487         0.503909         0.810941
 O         2.868215         1.034896         2.010175
 H         4.370702        -1.910453         1.923093
 H         4.532433        -2.648804         0.473845
 H         5.267480        -0.898318         0.763605
 H        -0.697381        -0.579244         0.247173
 H        -0.126101         0.549650         1.339207
 H        -0.285830         1.076691        -0.368446
 H         1.762623        -0.345013        -1.985781
 H         1.651724         1.328879        -1.601669
 H         4.352401         0.869385        -0.755567
 H         2.338622         1.854012         2.145696
