19
Iteration:  3193charge 0 multiplicity 1
 C         4.390279        -1.570339         1.175349
 C         3.203373        -0.928423         0.482621
 O         1.961601        -1.517439         0.421110
 C         1.430011        -0.060180         0.037900
 C         0.113372         0.347769         0.544293
 C         1.961260         0.107547        -1.428811
 C         3.331761         0.221632        -0.669114
 C         2.752325         0.492032         0.711924
 O         2.901277         1.409928         1.789995
 H         4.980289        -0.922187         1.795384
 H         3.959841        -2.434857         1.695523
 H         5.160286        -2.008489         0.553992
 H        -0.211080        -0.395086         1.290469
 H         0.229082         1.369098         1.063574
 H        -0.699830         0.369067        -0.251915
 H         1.839503        -0.776688        -2.088422
 H         1.618898         1.048240        -1.863262
 H         4.232269         0.591393        -1.145088
 H         3.655982         1.994773         1.750665
