19
Iteration:  1377charge 0 multiplicity 1
 C         4.391981        -1.605193         1.008184
 C         3.237864        -0.879996         0.437655
 O         2.051324        -1.479117        -0.001658
 C         1.449070        -0.142653        -0.013644
 C        -0.083425        -0.133695         0.331983
 C         2.155388         0.688681        -1.266446
 C         3.405803         0.568800        -0.315858
 C         2.619681         0.404389         0.928812
 O         2.882246         1.133383         2.072746
 H         4.800239        -2.300343         0.221909
 H         5.079011        -0.808299         1.180754
 H         4.076762        -2.185044         1.855636
 H        -0.519244        -1.055145         0.561048
 H        -0.377084         0.589254         1.056072
 H        -0.607017         0.136766        -0.530575
 H         2.339377         0.082318        -2.191761
 H         1.888375         1.685440        -1.582857
 H         4.454809         0.994085        -0.465694
 H         2.579619         2.018466         1.862155
