19
Iteration:  1037
 C         4.439041        -1.635914         0.981511
 C         3.306847        -0.878227         0.482187
 O         2.115659        -1.493802        -0.148552
 C         1.407438        -0.200388         0.020325
 C        -0.036357        -0.038221         0.149062
 C         2.069737         0.766580        -1.056539
 C         3.421926         0.506054        -0.304926
 C         2.648357         0.331959         0.979956
 O         2.770378         1.156406         2.095948
 H         4.074610        -2.091256         1.881001
 H         4.709905        -2.385322         0.149684
 H         5.283285        -0.930460         1.245989
 H        -0.340337        -0.884151         0.866365
 H        -0.491047         0.856151         0.680148
 H        -0.545370        -0.241245        -0.850650
 H         1.925385         0.441312        -2.093830
 H         1.593043         1.793493        -0.795940
 H         4.374263         1.078722        -0.403146
 H         2.924866         1.965696         1.571622
