19
Iteration:  1569charge 0 multiplicity 1
 C         4.389102        -1.666694         0.887384
 C         3.298976        -0.760757         0.494967
 O         2.041441        -1.446029         0.138423
 C         1.413355        -0.123921         0.075657
 C        -0.059244        -0.007320         0.274704
 C         2.094771         0.393117        -1.244926
 C         3.448833         0.566716        -0.549727
 C         2.709574         0.518309         0.873110
 O         2.741674         1.193764         2.151900
 H         4.589721        -1.593893         1.975736
 H         4.163059        -2.778698         0.770971
 H         5.326139        -1.385639         0.370708
 H        -0.439733        -0.729202         1.037882
 H        -0.301134         1.021271         0.658142
 H        -0.709574        -0.278675        -0.597256
 H         2.041109        -0.404207        -2.004777
 H         1.807504         1.421813        -1.616096
 H         4.496385         0.834443        -0.844936
 H         3.711530         1.338800         2.305385
