19
Iteration:   980
 C         4.200818        -1.626018         1.049955
 C         3.327838        -0.647003         0.377621
 O         2.156782        -1.331858        -0.030071
 C         1.459100        -0.085585         0.019814
 C         0.025178        -0.166833         0.289523
 C         2.119540         0.587787        -1.306382
 C         3.423989         0.581816        -0.460083
 C         2.629388         0.582390         0.850942
 O         2.805061         0.831109         2.253100
 H         3.867895        -1.759204         2.085985
 H         4.339380        -2.711586         0.684416
 H         5.229203        -1.243622         1.197713
 H        -0.054122        -1.267140         0.508932
 H        -0.129877         0.377908         1.227311
 H        -0.637686        -0.034612        -0.592592
 H         2.046913        -0.072351        -2.189027
 H         1.717170         1.656876        -1.604979
 H         4.312667         1.048824        -0.751509
 H         2.461430         1.735729         2.435931
