19
Iteration:  2720
 C         4.481083        -1.601719         0.870089
 C         3.205947        -0.876080         0.608975
 O         1.879821        -1.460234         0.466487
 C         1.353807        -0.150210         0.192204
 C        -0.154741         0.051284         0.423474
 C         2.002692         0.148298        -1.230873
 C         3.378591         0.145752        -0.625284
 C         2.751032         0.625617         0.692171
 O         3.157356         1.650138         1.711377
 H         5.394216        -1.102725         0.534888
 H         4.633746        -1.916627         1.966154
 H         4.442997        -2.585678         0.350984
 H        -0.585312        -0.438849         1.242403
 H        -0.281179         1.112781         0.485957
 H        -0.448372        -0.331850        -0.517666
 H         1.612333        -0.539907        -1.969761
 H         1.647272         1.172685        -1.463213
 H         4.357142         0.600843        -0.825834
 H         3.179566         1.326368         2.611952
