19
Iteration:  1963charge 0 multiplicity 1
 C         4.393829        -1.592380         1.088012
 C         3.211998        -0.902131         0.487290
 O         1.847891        -1.415555         0.122895
 C         1.388812         0.001442         0.083916
 C        -0.098813        -0.082240         0.444235
 C         2.078987         0.456218        -1.275782
 C         3.337475         0.275613        -0.566964
 C         2.785291         0.529967         0.837993
 O         3.133669         1.258374         1.905268
 H         4.390584        -2.680857         1.344044
 H         5.203151        -1.395070         0.447691
 H         4.682766        -0.972164         2.001921
 H        -0.358491         0.177895         1.539757
 H        -0.901703         0.510558        -0.015670
 H        -0.404976        -1.134142         0.378129
 H         1.892069        -0.229638        -2.090007
 H         1.976923         1.480627        -1.645965
 H         4.301536         0.774826        -0.834171
 H         3.109994         2.180638         1.665149
