19
Iteration:  2309
 C         4.303983        -1.841478         1.133656
 C         3.329658        -0.918514         0.419615
 O         1.980771        -1.505089         0.272544
 C         1.398542        -0.079796         0.145694
 C         0.022286         0.145177         0.659768
 C         1.927397         0.343999        -1.220999
 C         3.369523         0.237064        -0.679766
 C         2.798828         0.454275         0.782383
 O         3.084566         1.645594         1.580996
 H         3.512284        -2.177549         1.913415
 H         4.739340        -2.687188         0.442289
 H         5.099839        -1.331795         1.717146
 H        -0.199786        -0.385776         1.628276
 H        -0.463154         1.107914         0.542683
 H        -0.589488        -0.458572        -0.063929
 H         1.490803        -0.132310        -2.121026
 H         1.665002         1.456621        -1.218389
 H         4.251384         0.698653        -1.127972
 H         2.428564         2.017542         2.162308
