19
Iteration:  4541
 C         4.377133        -1.542042         1.095443
 C         3.293429        -0.839835         0.434788
 O         2.045015        -1.489207         0.077729
 C         1.447802        -0.160037        -0.007677
 C         0.091098         0.091418         0.447080
 C         2.048746         0.562819        -1.312324
 C         3.340124         0.416996        -0.511655
 C         2.718552         0.454627         0.788280
 O         2.801580         1.158047         1.996527
 H         4.358136        -2.659683         0.908201
 H         5.306438        -1.128586         0.812681
 H         4.206749        -1.630343         2.220726
 H        -0.516784        -0.181886        -0.397362
 H         0.031355        -0.662997         1.288090
 H        -0.204860         1.017718         0.841759
 H         1.925775         0.106212        -2.283779
 H         1.703335         1.643804        -1.254527
 H         4.274126         0.875295        -0.728223
 H         2.336686         0.550271         2.615012
