19
Iteration:  3320charge 0 multiplicity 1
 C         4.247943        -1.579270         1.192478
 C         3.155316        -0.818444         0.504551
 O         1.932487        -1.516761         0.251522
 C         1.432737        -0.023614         0.060299
 C         0.026104         0.025188         0.535838
 C         2.075239         0.355548        -1.311916
 C         3.420749         0.239267        -0.561209
 C         2.712714         0.480745         0.716849
 O         3.056981         1.339363         1.722434
 H         5.206207        -1.297068         0.808715
 H         4.368302        -1.226681         2.221923
 H         4.155102        -2.640775         1.150996
 H         0.027826        -0.005889         1.633091
 H        -0.462940         0.949253         0.282747
 H        -0.605142        -0.675719         0.062757
 H         1.907699        -0.157747        -2.242863
 H         1.762663         1.408643        -1.332400
 H         4.440383         0.517445        -0.765829
 H         3.285320         2.246368         1.377087
