19
Iteration:  2050charge 0 multiplicity 1
 C         4.423341        -1.687396         0.844534
 C         3.290455        -0.869573         0.514927
 O         1.892130        -1.472729         0.312743
 C         1.421289        -0.082064         0.105149
 C        -0.038987         0.231170         0.541871
 C         2.065041         0.211507        -1.251498
 C         3.482103         0.241080        -0.590863
 C         2.752795         0.482311         0.818945
 O         2.848980         1.419494         1.876272
 H         5.083173        -1.528748        -0.031620
 H         4.869150        -1.183007         1.645816
 H         4.366944        -2.734689         1.102333
 H        -0.233422        -0.475644         1.421513
 H        -0.077297         1.300293         0.815778
 H        -0.806937         0.102875        -0.286158
 H         1.802237        -0.534875        -1.995755
 H         1.794486         1.228476        -1.573847
 H         4.480966         0.497471        -0.939575
 H         2.872879         2.290663         1.457043
