19
Iteration:  3867
 C         4.413142        -1.729375         0.814263
 C         3.277769        -0.792944         0.496860
 O         2.022337        -1.398145         0.193326
 C         1.335198        -0.057946         0.086728
 C        -0.100902        -0.047875         0.041614
 C         2.131734         0.540841        -1.188171
 C         3.323015         0.512425        -0.319596
 C         2.641199         0.462755         0.941982
 O         3.023702         1.124258         2.154699
 H         4.618487        -2.108553         1.833100
 H         4.358876        -2.560125         0.158411
 H         5.360761        -1.290132         0.475169
 H        -0.372793         0.797892        -0.536971
 H        -0.397169        -0.907099        -0.584226
 H        -0.635298        -0.100402         0.978720
 H         2.082666        -0.056372        -2.085621
 H         1.640657         1.516228        -1.377806
 H         4.361346         0.862251        -0.357845
 H         2.761506         2.011713         1.892027
