19
Iteration:  3587
 C         4.447928        -1.550565         0.932350
 C         3.238767        -0.863141         0.438509
 O         1.975222        -1.494978         0.123426
 C         1.421541        -0.041639         0.040877
 C         0.006216         0.254874         0.462001
 C         2.168235         0.422714        -1.264001
 C         3.422979         0.365080        -0.467139
 C         2.710131         0.499599         0.800757
 O         2.743781         0.992824         2.055803
 H         5.073218        -1.192441         1.787454
 H         4.219729        -2.605515         1.107102
 H         5.150411        -1.597078         0.031939
 H        -0.145971        -0.157214         1.448021
 H        -0.173071         1.363583         0.583342
 H        -0.699815        -0.255013        -0.331359
 H         1.927898        -0.217702        -2.160934
 H         1.780032         1.427541        -1.434978
 H         4.359334         0.658581        -0.817995
 H         2.775858         1.992254         2.031492
