19
Iteration:   792charge 0 multiplicity 1
 C         4.555449        -1.503076         0.937667
 C         3.273489        -0.905529         0.411283
 O         2.090042        -1.456416        -0.216453
 C         1.474282        -0.113939        -0.039549
 C        -0.075189         0.034297         0.284540
 C         2.132620         0.724352        -1.160092
 C         3.451585         0.462927        -0.302171
 C         2.567047         0.371355         1.005236
 O         2.591236         0.954314         2.206584
 H         4.490929        -1.834213         1.948933
 H         4.968730        -2.230608         0.334866
 H         5.150387        -0.659315         1.050066
 H        -0.260734         0.707279         1.068005
 H        -0.684776         0.230095        -0.544293
 H        -0.470398        -0.902715         0.644943
 H         2.184898         0.311662        -2.072231
 H         1.974424         1.795739        -1.222058
 H         4.553202         0.710797        -0.447504
 H         3.394874         1.484477         2.178494
