19
Iteration:  1286charge 0 multiplicity 1
 C         4.521389        -1.586144         0.794818
 C         3.229301        -0.946705         0.482460
 O         2.105498        -1.501905        -0.105802
 C         1.399002        -0.114597        -0.021744
 C        -0.062520         0.052041         0.349749
 C         2.232474         0.562913        -1.224941
 C         3.473225         0.441224        -0.231344
 C         2.631203         0.332253         1.020465
 O         2.568917         1.238305         2.132968
 H         4.379035        -2.249482         1.613722
 H         4.923151        -1.855971        -0.264174
 H         5.135199        -0.723087         1.152843
 H        -0.393463        -0.897778         0.849059
 H        -0.189935         0.877878         1.079039
 H        -0.789646         0.004468        -0.490683
 H         2.283579         0.052340        -2.161039
 H         1.951946         1.662761        -1.310191
 H         4.411241         0.891523        -0.421075
 H         3.165640         1.989914         1.915990
