19
Iteration:  4077charge 0 multiplicity 1
 C         4.533574        -1.539577         0.824360
 C         3.204030        -0.864330         0.576299
 O         1.912167        -1.476799         0.276873
 C         1.394932        -0.126232         0.104383
 C        -0.048390         0.108378         0.198680
 C         2.083173         0.392205        -1.193098
 C         3.410449         0.403012        -0.474034
 C         2.722283         0.477948         0.854103
 O         2.917405         1.144551         2.034770
 H         4.588074        -2.085302        -0.092470
 H         5.336178        -0.875219         0.986453
 H         4.517123        -2.238050         1.627869
 H        -0.538270         0.432982         1.102480
 H        -0.140709         0.957695        -0.504842
 H        -0.742875        -0.679856        -0.278546
 H         1.884749        -0.203116        -2.092344
 H         1.602889         1.336029        -1.294720
 H         4.388201         0.750505        -0.586912
 H         2.996414         2.130767         1.902743
