19
Iteration:  2421charge 0 multiplicity 1
 C         4.424158        -1.628082         0.986847
 C         3.248211        -0.835313         0.560164
 O         1.940230        -1.487846         0.404131
 C         1.399790        -0.164991         0.125893
 C        -0.069475         0.314236         0.533884
 C         2.000672         0.164721        -1.269000
 C         3.340247         0.232051        -0.707897
 C         2.788421         0.510664         0.754586
 O         3.004626         1.449205         1.703773
 H         4.644834        -1.936027         2.080872
 H         4.440987        -2.538155         0.370127
 H         5.423061        -1.190390         0.645078
 H         0.117928         0.235721         1.565960
 H        -0.069735         1.353834         0.299921
 H        -0.855457        -0.332564         0.206836
 H         1.741298        -0.478876        -2.129074
 H         1.766030         1.224428        -1.498811
 H         4.254542         0.449175        -1.235501
 H         2.600569         1.154534         2.580812
