19
Iteration:   118
 C         4.318925        -1.693868         0.742754
 C         3.128681        -0.911382         0.427017
 O         1.989508        -1.386482        -0.068107
 C         1.452229         0.011366        -0.098642
 C        -0.106486        -0.029496         0.023316
 C         2.318817         0.828694        -1.093554
 C         3.509315         0.654740        -0.163290
 C         2.630811         0.348580         1.004865
 O         2.875539         0.866343         2.313079
 H         4.242795        -2.479937         1.470371
 H         4.819268        -2.086595        -0.153327
 H         4.992060        -0.866518         1.217694
 H        -0.425690         0.930687        -0.319317
 H        -0.479087        -0.854995        -0.629794
 H        -0.300849        -0.232192         1.117652
 H         2.326926         0.510085        -2.183649
 H         1.890151         1.988084        -1.079083
 H         4.441634         1.106627         0.052911
 H         2.390547         0.236902         2.909245
