19
Iteration:  1571charge 0 multiplicity 1
 C         4.400644        -1.663699         0.887420
 C         3.287585        -0.767322         0.517040
 O         2.022125        -1.436344         0.146091
 C         1.416649        -0.123849         0.078530
 C        -0.056341        -0.028055         0.261416
 C         2.110963         0.406239        -1.258544
 C         3.453593         0.553949        -0.553147
 C         2.701281         0.516785         0.860512
 O         2.750681         1.194677         2.161080
 H         4.588563        -1.547260         1.989320
 H         4.175031        -2.702107         0.699100
 H         5.298511        -1.357987         0.345909
 H        -0.410494        -0.725423         1.067803
 H        -0.290973         0.976128         0.699560
 H        -0.731289        -0.202857        -0.591695
 H         2.029722        -0.365609        -2.022430
 H         1.768242         1.381503        -1.603966
 H         4.484939         0.829007        -0.852313
 H         3.709899         1.295101         2.270821
