19
Iteration:  3524charge 0 multiplicity 1
 C         4.372095        -1.660581         0.942156
 C         3.259471        -0.817144         0.488550
 O         1.975265        -1.437759         0.212897
 C         1.448095        -0.075876         0.038897
 C        -0.013449         0.163845         0.388796
 C         2.099984         0.353641        -1.319080
 C         3.368460         0.444122        -0.463538
 C         2.657709         0.462886         0.845714
 O         2.945680         1.122987         2.008062
 H         4.205694        -2.114588         1.953626
 H         4.506598        -2.272193         0.035364
 H         5.330046        -1.095085         0.968647
 H        -0.544967        -0.622647        -0.088687
 H        -0.238344         0.215962         1.428010
 H        -0.426512         1.103065        -0.033807
 H         2.130315        -0.366298        -2.171036
 H         1.755548         1.368985        -1.528096
 H         4.347770         0.726013        -0.682016
 H         2.658405         2.073631         1.960158
