19
Iteration:  1262charge 0 multiplicity 1
 C         4.560909        -1.642365         0.816065
 C         3.334357        -0.858758         0.476305
 O         2.031963        -1.486046         0.035823
 C         1.452124        -0.197202         0.115417
 C         0.000342         0.062302         0.124011
 C         2.084366         0.684161        -1.134869
 C         3.436193         0.489458        -0.341146
 C         2.625989         0.360419         0.960766
 O         2.632523         1.105127         2.137823
 H         4.441988        -1.939926         1.866488
 H         4.744433        -2.429366         0.003511
 H         5.463019        -0.968102         0.768479
 H        -0.432587        -0.648066         0.902911
 H        -0.208028         1.119047         0.471939
 H        -0.505315        -0.376689        -0.784225
 H         1.931661         0.227875        -2.117982
 H         1.743614         1.728213        -1.076395
 H         4.425401         0.988192        -0.507911
 H         2.593602         2.042456         1.933662
