19
Iteration:   972
 C         4.279716        -1.645038         1.081237
 C         3.380818        -0.678109         0.341448
 O         2.162064        -1.348268         0.037408
 C         1.518732        -0.082399        -0.082109
 C         0.022589        -0.112901         0.306972
 C         2.080362         0.547947        -1.274158
 C         3.389332         0.622145        -0.518409
 C         2.616177         0.552558         0.898047
 O         2.771467         0.832831         2.220803
 H         3.840323        -1.867380         2.020457
 H         4.211145        -2.553939         0.438938
 H         5.350692        -1.409125         1.263102
 H        -0.211718        -1.214392         0.550539
 H        -0.475399         0.560439         1.087641
 H        -0.516704         0.364699        -0.559608
 H         2.008396        -0.071959        -2.135670
 H         1.657931         1.558018        -1.423676
 H         4.258923         1.248271        -0.529020
 H         2.264857         1.615674         2.545606
