19
Iteration:  1711
 C         4.451902        -1.674084         0.999231
 C         3.325843        -0.845738         0.490642
 O         2.015290        -1.531248         0.156179
 C         1.440121        -0.154452         0.058191
 C         0.002416         0.062100         0.526517
 C         2.059425         0.445586        -1.208834
 C         3.444100         0.426429        -0.547317
 C         2.704861         0.464801         0.788167
 O         2.742312         1.365867         1.881153
 H         4.589132        -2.555814         0.309918
 H         5.434442        -1.064996         0.999663
 H         4.384746        -2.117576         2.031456
 H        -0.665513         0.112783        -0.366170
 H        -0.269879        -0.849662         1.135899
 H        -0.073505         1.074993         1.001516
 H         2.103411        -0.196516        -2.131019
 H         1.666069         1.522765        -1.273495
 H         4.432709         0.592636        -0.904274
 H         1.899943         1.869598         1.747746
