19
Iteration:  1453
 C         4.376417        -1.731151         0.930700
 C         3.344962        -0.693765         0.435952
 O         2.147942        -1.450452         0.164092
 C         1.473988        -0.196804         0.066207
 C         0.021181        -0.048795         0.221984
 C         2.050751         0.503120        -1.224039
 C         3.339446         0.552472        -0.499069
 C         2.618064         0.527559         0.899743
 O         2.787217         1.101462         2.118230
 H         5.403430        -1.332687         1.021185
 H         3.931453        -2.011131         1.838793
 H         4.298484        -2.519934         0.216204
 H        -0.322846        -0.072206         1.247302
 H        -0.268687         0.927560        -0.117697
 H        -0.576501        -0.765520        -0.280734
 H         2.037169         0.125163        -2.255159
 H         1.697320         1.510142        -1.156908
 H         4.308544         1.119144        -0.680687
 H         2.603965         2.082046         2.108461
