19
Iteration:  3338charge 0 multiplicity 1
 C         4.442059        -1.482964         1.232961
 C         3.240184        -0.951742         0.377926
 O         1.925367        -1.521772         0.269960
 C         1.406489        -0.176759         0.037566
 C        -0.025096         0.247565         0.469707
 C         2.011652         0.402054        -1.303365
 C         3.364226         0.208025        -0.640371
 C         2.694887         0.406442         0.787065
 O         3.016941         1.309902         1.853967
 H         5.436111        -1.533074         0.697314
 H         4.402920        -0.982481         2.221012
 H         4.242613        -2.575713         1.532463
 H         0.008327         0.588824         1.588227
 H        -0.386654         1.033148        -0.238995
 H        -0.819241        -0.647580         0.386113
 H         1.856007        -0.280945        -2.189566
 H         1.933146         1.492627        -1.526171
 H         4.335575         0.639245        -1.075932
 H         3.067351         2.250327         1.511338
