19
Iteration:  2917charge 0 multiplicity 1
 C         4.477595        -1.594048         0.978326
 C         3.152532        -0.866521         0.654206
 O         1.880059        -1.463014         0.453129
 C         1.377979        -0.046760         0.151812
 C        -0.079712         0.075206         0.485645
 C         1.980900         0.159372        -1.303085
 C         3.296127         0.194735        -0.665051
 C         2.788855         0.531104         0.726884
 O         3.149590         1.595052         1.638271
 H         5.045376        -1.069253         1.716406
 H         4.292748        -2.545834         1.387087
 H         5.103987        -1.769959         0.133340
 H        -0.252111        -0.068014         1.592101
 H        -0.388172         1.032230         0.051003
 H        -0.643840        -0.706496        -0.051571
 H         1.800203        -0.695029        -1.943306
 H         1.665417         1.131620        -1.701208
 H         4.300429         0.428096        -1.026951
 H         3.435475         1.165684         2.463875
