19
Iteration:  1086charge 0 multiplicity 1
 C         4.433346        -1.717849         0.582900
 C         3.237629        -0.790180         0.587553
 O         2.029515        -1.413054         0.164655
 C         1.445473         0.001167        -0.064491
 C         0.018848        -0.077198         0.201415
 C         2.303841         0.444435        -1.235895
 C         3.495521         0.597944        -0.279174
 C         2.673319         0.554232         0.962810
 O         2.558371         1.063958         2.265953
 H         4.071686        -2.763245         0.706090
 H         4.822764        -1.581302        -0.376693
 H         5.148125        -1.422837         1.298348
 H        -0.142911        -0.232000         1.236866
 H        -0.535205         0.806874        -0.074023
 H        -0.381741        -0.879579        -0.395729
 H         2.209407        -0.271803        -2.044638
 H         1.866376         1.343840        -1.498650
 H         4.512312         0.841164        -0.483889
 H         2.488062         2.032540         2.129175
