19
Iteration:  4826charge 0 multiplicity 1
 C         4.311599        -1.890324         0.995184
 C         3.328264        -0.890297         0.393207
 O         2.038999        -1.431125        -0.040205
 C         1.426078        -0.031659        -0.012710
 C         0.009126        -0.207819         0.401350
 C         2.145448         0.702811        -1.119744
 C         3.440131         0.542225        -0.313767
 C         2.682924         0.460594         0.912565
 O         2.785930         1.417989         1.874219
 H         4.385265        -2.625276         0.177239
 H         5.251795        -1.388364         1.034286
 H         4.040519        -2.502284         1.842646
 H        -0.748958        -0.264013        -0.387939
 H         0.097752        -1.175050         0.899209
 H        -0.340599         0.357905         1.285262
 H         2.123341         0.238887        -2.126313
 H         1.831360         1.792466        -1.005461
 H         4.431389         1.012581        -0.393515
 H         2.375007         0.990776         2.671857
