19
Iteration:  4429charge 0 multiplicity 1
 C         4.540051        -1.651339         0.767889
 C         3.189386        -0.905568         0.568390
 O         2.003562        -1.529970         0.242732
 C         1.397391        -0.150412         0.059981
 C        -0.076497         0.095497         0.193785
 C         2.027015         0.371014        -1.179619
 C         3.411598         0.449463        -0.413811
 C         2.716408         0.442134         0.922727
 O         2.939354         1.407936         2.005063
 H         4.876032        -1.752471        -0.241608
 H         5.166451        -0.916120         1.410465
 H         4.556142        -2.644311         1.312752
 H        -0.689758        -0.500694        -0.526414
 H        -0.542580         0.161742         1.196202
 H        -0.120981         1.096957        -0.065364
 H         1.874136        -0.461388        -1.961029
 H         1.529812         1.284543        -1.451633
 H         4.375006         0.794034        -0.823446
 H         2.196776         1.517885         2.591907
