19
Iteration:  3853
 C         4.386825        -1.714346         0.888847
 C         3.219386        -0.819238         0.541662
 O         1.978836        -1.388913         0.061000
 C         1.468709        -0.062554         0.048003
 C        -0.059231        -0.144733         0.109766
 C         2.063864         0.654126        -1.126306
 C         3.411925         0.489465        -0.367345
 C         2.621061         0.403967         1.020387
 O         3.009786         1.153729         2.049473
 H         4.198004        -2.077398         1.869734
 H         4.245808        -2.606315         0.216530
 H         5.367385        -1.225101         0.853309
 H        -0.590044         0.671076        -0.577946
 H        -0.365776        -1.194811        -0.207005
 H        -0.478248        -0.000603         1.116096
 H         1.988911         0.094568        -2.061504
 H         1.819061         1.727109        -1.271762
 H         4.275987         1.011598        -0.613527
 H         3.140389         2.118452         1.966045
