19
Iteration:   899
 C         4.546404        -1.624068         0.714761
 C         3.186500        -0.930242         0.503667
 O         2.040163        -1.489871        -0.021449
 C         1.503492        -0.054491         0.006380
 C        -0.093117        -0.102851         0.287785
 C         2.263248         0.608083        -1.181490
 C         3.484781         0.513741        -0.186511
 C         2.623388         0.398378         0.972566
 O         2.523036         1.224098         2.090629
 H         4.499846        -2.668240         1.305058
 H         5.096267        -1.757572        -0.202843
 H         5.159473        -0.876484         1.313877
 H        -0.342587        -0.919987         0.950428
 H        -0.322700         0.777579         0.878586
 H        -0.729579        -0.076555        -0.614892
 H         2.271164         0.159213        -2.291821
 H         2.008171         1.670163        -1.179797
 H         4.577459         0.925483        -0.317452
 H         3.344751         1.748317         2.078704
