19
Iteration:  4864
 C         4.265713        -1.894181         0.921611
 C         3.290574        -0.855170         0.411051
 O         2.141393        -1.394899        -0.044198
 C         1.487787        -0.058802         0.052178
 C         0.010393        -0.132025         0.415707
 C         2.104410         0.637122        -1.070437
 C         3.479310         0.500108        -0.414713
 C         2.688238         0.459983         0.889530
 O         2.710254         1.412122         1.948704
 H         5.024782        -2.290078         0.171367
 H         4.983830        -1.634490         1.768246
 H         3.607432        -2.789260         1.120819
 H        -0.566678        -0.699403        -0.339054
 H         0.111551        -0.760989         1.340864
 H        -0.500933         0.822357         0.503309
 H         1.841764         0.150288        -2.040322
 H         1.632086         1.603515        -1.161903
 H         4.471702         0.952848        -0.650403
 H         2.621547         0.940516         2.774992
