19
Iteration:  3481
 C         4.255382        -1.850462         1.068918
 C         3.240160        -0.799525         0.479300
 O         1.998923        -1.375639         0.096373
 C         1.381540        -0.031463         0.180422
 C        -0.034862        -0.207490         0.401018
 C         2.090899         0.596709        -1.187119
 C         3.473393         0.340291        -0.505744
 C         2.702103         0.467526         0.874178
 O         2.958491         1.428725         1.806205
 H         3.542148        -2.631301         1.353023
 H         4.894687        -2.122757         0.207719
 H         4.840402        -1.628744         1.979606
 H        -0.517294        -0.120655        -0.558976
 H        -0.155565        -1.114800         0.911469
 H        -0.345617         0.580150         1.109831
 H         1.758968         0.090881        -2.103599
 H         2.029031         1.683391        -1.230528
 H         4.357549         0.757329        -0.835722
 H         3.739327         1.918055         1.422041
