19
Iteration:  3378
 C         4.390757        -1.553352         0.983401
 C         3.271177        -0.801879         0.437615
 O         1.974517        -1.460750         0.430781
 C         1.404996        -0.027812         0.040640
 C         0.013967         0.283817         0.390956
 C         2.107152         0.181842        -1.368741
 C         3.381951         0.252771        -0.651945
 C         2.683464         0.543079         0.806385
 O         2.901014         1.136270         2.010962
 H         4.899126        -2.051717         0.141553
 H         4.984989        -0.780533         1.481807
 H         4.097238        -2.245508         1.775619
 H         0.058681         1.143395         0.982043
 H        -0.451716         0.567630        -0.552228
 H        -0.495481        -0.459958         0.944863
 H         2.013109        -0.710725        -2.011569
 H         1.671252         1.006974        -1.915862
 H         4.378104         0.593638        -1.006791
 H         2.562071         2.017506         1.872561
