19
Iteration:  3531charge 0 multiplicity 1
 C         4.408130        -1.638255         0.886326
 C         3.231246        -0.792585         0.534312
 O         2.020281        -1.463720         0.230845
 C         1.419104        -0.081651         0.073443
 C        -0.024507         0.233269         0.347590
 C         2.120817         0.376464        -1.286646
 C         3.395600         0.391311        -0.471028
 C         2.688685         0.472805         0.815533
 O         2.902477         1.064307         1.987256
 H         4.238518        -1.927540         1.942942
 H         4.508792        -2.511915         0.221992
 H         5.241233        -0.900770         0.846299
 H        -0.606565        -0.680260         0.044931
 H        -0.183450         0.455301         1.459981
 H        -0.392316         1.152325        -0.218148
 H         1.837359        -0.396043        -2.037668
 H         1.616052         1.323626        -1.515079
 H         4.385159         0.845562        -0.718447
 H         2.494405         1.922081         2.122445
