19
Iteration:  3285
 C         4.208093        -1.893417         1.146583
 C         3.292432        -0.830338         0.488724
 O         2.016161        -1.385497         0.352890
 C         1.431378         0.015705         0.076352
 C        -0.068653        -0.091374         0.475134
 C         2.004613         0.232160        -1.365145
 C         3.376598         0.293955        -0.644910
 C         2.757058         0.675705         0.859431
 O         3.087681         1.584517         1.769978
 H         5.254097        -1.626029         1.363208
 H         3.570023        -2.174955         1.965191
 H         4.268636        -2.835042         0.552297
 H        -0.174307        -0.980917         1.182804
 H        -0.391328         0.846411         0.904785
 H        -0.663818        -0.451349        -0.412816
 H         1.942093        -0.562147        -2.122451
 H         1.710066         1.197921        -1.814626
 H         4.467868         0.547613        -0.893524
 H         3.112180         2.482363         1.307847
