19
Iteration:  2870
 C         4.412219        -1.778943         0.906424
 C         3.313276        -0.872444         0.542053
 O         2.030667        -1.466499         0.467859
 C         1.431911        -0.076756         0.190920
 C        -0.149688         0.194885         0.494077
 C         1.966135         0.127575        -1.247544
 C         3.369796         0.247135        -0.627347
 C         2.889413         0.555775         0.750670
 O         2.927825         1.595503         1.738990
 H         5.316744        -1.172027         0.940925
 H         4.302583        -2.425639         1.770658
 H         4.530091        -2.501721         0.085307
 H        -0.356229         0.424101         1.543881
 H        -0.579269         0.896226        -0.288874
 H        -0.674348        -0.804000         0.341830
 H         1.714070        -0.720839        -1.879543
 H         1.639505         1.117649        -1.584197
 H         4.297517         0.476672        -1.244297
 H         2.452965         2.326420         1.334700
