19
Iteration:  1182
 C         4.371486        -1.619961         1.116265
 C         3.288103        -0.881194         0.393509
 O         2.028073        -1.384639        -0.173627
 C         1.395840        -0.092218        -0.043527
 C        -0.062083        -0.230833         0.295001
 C         2.152590         0.806868        -1.196264
 C         3.449099         0.645360        -0.324104
 C         2.661691         0.357712         0.885760
 O         2.825476         0.981673         2.155385
 H         4.020447        -1.752230         2.172563
 H         4.388031        -2.545124         0.639693
 H         5.307051        -1.077773         1.088588
 H        -0.265882         0.100768         1.332871
 H        -0.729296         0.356530        -0.395076
 H        -0.377592        -1.284908         0.138252
 H         2.167112         0.551982        -2.284259
 H         1.817474         1.826456        -1.069812
 H         4.419887         1.058354        -0.461089
 H         3.280200         1.814243         2.032796
