19
Iteration:  2387
 C         4.456963        -1.562622         0.991366
 C         3.265760        -0.887979         0.442330
 O         1.874918        -1.512086         0.490640
 C         1.425090        -0.010074         0.281313
 C        -0.021275         0.270161         0.304775
 C         1.940484         0.157284        -1.189723
 C         3.270727         0.291920        -0.702025
 C         2.831406         0.466310         0.737642
 O         3.065883         1.380239         1.752269
 H         4.544379        -1.551915         2.146016
 H         4.295342        -2.627094         0.644003
 H         5.289265        -1.041119         0.462351
 H        -0.385096        -0.126297         1.260594
 H        -0.313823         1.313580         0.308172
 H        -0.643506        -0.201455        -0.490647
 H         1.684871        -0.693904        -1.835204
 H         1.439479         1.091975        -1.587320
 H         4.164510         0.612486        -1.241934
 H         3.610525         1.075419         2.492819
