19
Iteration:  3810charge 0 multiplicity 1
 C         4.230043        -1.811673         1.129044
 C         3.299219        -0.799329         0.362568
 O         2.047198        -1.376910        -0.121584
 C         1.443727        -0.027372         0.040504
 C         0.012248        -0.173345         0.477288
 C         2.132222         0.700756        -1.201301
 C         3.461606         0.529046        -0.453089
 C         2.688794         0.404114         0.849960
 O         2.813057         1.126683         2.036968
 H         3.559553        -2.547978         1.483602
 H         4.895128        -2.241753         0.355132
 H         4.676962        -1.212496         1.920106
 H        -0.686871         0.505525        -0.137325
 H        -0.124987        -1.269612         0.479254
 H         0.033488         0.278755         1.447310
 H         1.877580         0.297672        -2.179012
 H         1.974577         1.805435        -1.142070
 H         4.376726         1.039034        -0.494730
 H         3.206155         1.917973         1.582426
