19
Iteration:   907
 C         4.570318        -1.539395         0.734055
 C         3.230056        -0.961700         0.546998
 O         2.050939        -1.453007        -0.055912
 C         1.357332        -0.069866        -0.028898
 C        -0.062110        -0.049550         0.307552
 C         2.295098         0.612741        -1.163855
 C         3.480373         0.406461        -0.224827
 C         2.601517         0.368876         0.978017
 O         2.533646         1.199991         2.115956
 H         4.660980        -2.410914         1.363599
 H         5.022724        -1.832160        -0.240036
 H         5.219958        -0.809500         1.273027
 H        -0.254183        -1.049338         0.831767
 H        -0.305118         0.864560         0.953830
 H        -0.604611         0.140570        -0.654232
 H         2.380902         0.235833        -2.172049
 H         1.889438         1.610354        -1.213545
 H         4.476915         0.676778        -0.409002
 H         3.237600         1.841600         1.951592
