19
Iteration:   391
 C         4.225139        -1.832828         0.763401
 C         3.293195        -0.768185         0.427216
 O         2.079728        -1.326956        -0.105603
 C         1.489919        -0.000712        -0.064401
 C         0.005531        -0.083517         0.175889
 C         2.263645         0.863019        -1.172428
 C         3.498273         0.721605        -0.276372
 C         2.662097         0.409781         1.008402
 O         2.715885         0.743919         2.361932
 H         3.695770        -2.502188         1.459050
 H         4.642407        -2.370419        -0.135631
 H         5.065991        -1.574697         1.355606
 H        -0.505199         0.810983        -0.240189
 H        -0.382921        -1.091428        -0.128356
 H        -0.324341        -0.150767         1.229807
 H         2.162218         0.354351        -2.284105
 H         1.936143         1.875230        -1.298811
 H         4.466932         1.292388        -0.436046
 H         2.032389         1.409200         2.471829
