19
Iteration:    90charge 0 multiplicity 1
 C         4.517217        -1.763830         0.826434
 C         3.316941        -0.918430         0.331517
 O         2.030709        -1.362351        -0.288045
 C         1.477106        -0.009726         0.009235
 C        -0.032549         0.118265         0.143761
 C         2.170258         0.821533        -1.021532
 C         3.434045         0.468193        -0.181258
 C         2.586051         0.221193         1.083863
 O         2.668156         1.042291         2.239085
 H         4.147240        -2.526787         1.569516
 H         4.889917        -2.310799        -0.067305
 H         5.336287        -1.220195         1.146447
 H        -0.067635         1.225628         0.257852
 H        -0.451005        -0.202303        -0.801540
 H        -0.394954        -0.436688         0.972730
 H         2.017146         0.517593        -2.050472
 H         1.991106         1.801228        -0.858850
 H         4.470492         0.796218        -0.110693
 H         2.013878         0.666779         2.845385
