19
Iteration:  3415
 C         4.349533        -1.784055         0.931651
 C         3.237882        -0.831454         0.568720
 O         1.974910        -1.391569         0.290997
 C         1.512613         0.013308         0.075312
 C        -0.015588         0.075750         0.385871
 C         2.101433         0.307449        -1.322743
 C         3.409528         0.332000        -0.467939
 C         2.671782         0.480243         0.836245
 O         2.879901         1.360405         1.886469
 H         4.178947        -2.750063         0.407768
 H         5.246249        -1.369314         0.436136
 H         4.569238        -1.997528         2.014220
 H        -0.341578         1.160408         0.505308
 H        -0.659625        -0.446136        -0.323488
 H        -0.115702        -0.459923         1.400721
 H         1.837757        -0.554084        -1.993177
 H         1.971371         1.341464        -1.685118
 H         4.368060         0.627703        -0.851584
 H         2.828087         2.270999         1.601474
