19
Iteration:   579charge 0 multiplicity 1
 C         4.474322        -1.687271         0.891639
 C         3.336140        -0.818154         0.352247
 O         2.067418        -1.383481        -0.235887
 C         1.441794        -0.073021         0.060059
 C        -0.053049         0.096381         0.172365
 C         2.144782         0.714131        -1.058810
 C         3.465592         0.582132        -0.312328
 C         2.686969         0.267564         0.994381
 O         2.676955         0.902564         2.270130
 H         4.173388        -2.318350         1.724180
 H         4.820974        -2.426790         0.188699
 H         5.118505        -0.880081         1.117734
 H        -0.534127        -0.871874         0.191382
 H        -0.273313         0.653369         1.107647
 H        -0.323339         0.736061        -0.624474
 H         1.892045         0.386476        -2.075594
 H         1.878485         1.717500        -0.994822
 H         4.383302         1.069161        -0.506719
 H         1.766735         1.075906         2.556178
