19
Iteration:   473charge 0 multiplicity 1
 C         4.410748        -1.838069         0.694727
 C         3.347823        -0.907588         0.352557
 O         2.093418        -1.414070        -0.054398
 C         1.509865        -0.087256         0.049571
 C         0.074145         0.107749         0.234097
 C         2.210313         0.851925        -1.091360
 C         3.434207         0.733025        -0.239124
 C         2.656226         0.284017         0.992808
 O         2.428910         0.886756         2.198892
 H         4.022404        -2.623400         1.466121
 H         4.871402        -2.119677        -0.306607
 H         5.338983        -1.264031         1.196336
 H        -0.330581         0.994131         0.835259
 H        -0.344262         0.364108        -0.784914
 H        -0.383152        -0.844125         0.694903
 H         2.234579         0.463491        -2.127066
 H         1.615279         1.916930        -1.021556
 H         4.348408         1.235033        -0.362207
 H         3.305198         1.016109         2.610295
