19
Iteration:   333
 C         4.372008        -1.706513         0.871360
 C         3.186636        -0.863995         0.391489
 O         2.037528        -1.383865        -0.193297
 C         1.435489         0.028706        -0.112038
 C        -0.098716        -0.100144         0.074408
 C         2.275799         0.993459        -1.052885
 C         3.461577         0.542052        -0.140445
 C         2.535843         0.284171         1.040153
 O         2.840148         0.821238         2.259016
 H         3.904004        -2.367828         1.569440
 H         4.906214        -2.290736         0.141634
 H         4.999770        -0.930957         1.440819
 H        -0.599115         0.845959         0.319560
 H        -0.376230        -0.439708        -0.895785
 H        -0.076174        -0.833828         0.902248
 H         2.230812         0.805007        -2.175628
 H         1.891732         2.037206        -0.814619
 H         4.452716         0.812361        -0.130493
 H         3.360413         1.657270         2.155198
