19
Iteration:  2502
 C         4.342430        -1.863614         1.082390
 C         3.279340        -0.883709         0.432009
 O         1.981888        -1.455191         0.433331
 C         1.407894        -0.091268         0.127664
 C         0.034410         0.019885         0.530345
 C         1.921044         0.351661        -1.155052
 C         3.292805         0.241859        -0.678637
 C         2.793292         0.510740         0.854928
 O         3.098859         1.689825         1.451920
 H         3.697841        -2.648293         1.424114
 H         5.023066        -2.440005         0.408080
 H         4.915179        -1.492656         1.930607
 H        -0.119288        -0.219468         1.607215
 H        -0.330256         1.088982         0.441309
 H        -0.742847        -0.498700        -0.022701
 H         1.738718        -0.413012        -1.939976
 H         1.418505         1.314979        -1.391990
 H         4.068753         0.977093        -0.962909
 H         2.961941         1.601953         2.434231
