19
Iteration:  3037
 C         4.435457        -1.698932         0.956512
 C         3.170962        -0.873706         0.622173
 O         1.829524        -1.457663         0.476074
 C         1.421502        -0.092301         0.063291
 C         0.016176         0.175192         0.525295
 C         2.086666         0.116033        -1.304236
 C         3.464439         0.158922        -0.612738
 C         2.739177         0.573295         0.701197
 O         2.921973         1.656694         1.658386
 H         5.304105        -1.111971         0.808903
 H         4.520167        -2.188838         1.900621
 H         4.516047        -2.447264         0.206449
 H         0.022904        -0.051927         1.614657
 H        -0.337390         1.134849         0.194952
 H        -0.636632        -0.556172         0.040831
 H         1.784288        -0.672971        -1.962734
 H         1.789565         1.122294        -1.559993
 H         4.433820         0.513593        -0.855346
 H         3.325128         1.225129         2.469376
