19
Iteration:  4179
 C         4.295212        -1.643772         1.106639
 C         3.288896        -0.918900         0.389913
 O         2.066963        -1.511864         0.013688
 C         1.382332        -0.036462         0.030196
 C        -0.035548        -0.024630         0.530365
 C         2.078326         0.552318        -1.203760
 C         3.463988         0.361897        -0.466756
 C         2.741120         0.405522         0.846506
 O         2.826894         1.337858         1.906078
 H         4.986792        -1.920020         0.355543
 H         4.865704        -1.059912         1.919426
 H         3.749912        -2.529698         1.443474
 H        -0.389318        -1.034586         0.937164
 H        -0.125891         0.614240         1.441167
 H        -0.728225         0.251366        -0.270410
 H         2.017772        -0.094986        -2.108274
 H         1.933489         1.626077        -1.491275
 H         4.365240         0.872108        -0.898466
 H         3.217372         2.142186         1.581589
