19
Iteration:  3364charge 0 multiplicity 1
 C         4.501703        -1.500031         1.108822
 C         3.238864        -0.844438         0.514663
 O         1.961162        -1.479223         0.284551
 C         1.467550        -0.061639         0.111212
 C         0.009561         0.380983         0.357185
 C         1.932253         0.196397        -1.278700
 C         3.375028         0.275042        -0.615161
 C         2.735008         0.469793         0.706951
 O         2.903867         1.121279         1.908453
 H         5.212679        -1.906209         0.411700
 H         5.058331        -0.922033         1.876759
 H         4.125169        -2.369586         1.592834
 H        -0.124892         1.088431         1.200217
 H        -0.538938         0.671931        -0.542432
 H        -0.470052        -0.531931         0.622428
 H         1.716290        -0.665153        -1.877241
 H         1.791633         1.182952        -1.731712
 H         4.282140         0.513751        -1.055537
 H         2.754235         2.101211         1.985769
