19
Iteration:  2024charge 0 multiplicity 1
 C         4.327895        -1.851924         1.000279
 C         3.394778        -0.791551         0.461378
 O         2.002066        -1.460245         0.284233
 C         1.465248        -0.103432         0.119975
 C         0.037199         0.130953         0.482989
 C         1.917766         0.284743        -1.300077
 C         3.283646         0.443665        -0.574490
 C         2.736590         0.515270         0.799896
 O         2.945926         1.377024         1.859128
 H         4.848996        -2.463106         0.243124
 H         5.049377        -1.178858         1.680085
 H         3.750529        -2.487678         1.732205
 H        -0.052755        -0.242976         1.508182
 H        -0.229338         1.192954         0.266579
 H        -0.574245        -0.500540        -0.181160
 H         1.878238        -0.460275        -2.148636
 H         1.501320         1.310265        -1.515107
 H         4.260558         0.810274        -0.916611
 H         3.211020         2.258891         1.589516
