19
Iteration:  2940charge 0 multiplicity 1
 C         4.337534        -1.558642         1.142743
 C         3.241652        -0.840261         0.411309
 O         1.916559        -1.380190         0.383822
 C         1.367170        -0.047984         0.125976
 C        -0.136227         0.039456         0.666652
 C         2.007798         0.121687        -1.340602
 C         3.417189         0.181472        -0.686105
 C         2.748235         0.534212         0.716927
 O         3.104639         1.520448         1.646634
 H         4.669382        -0.979319         1.981397
 H         3.929575        -2.455929         1.620736
 H         5.227206        -1.859262         0.631344
 H        -0.053539        -0.549235         1.629879
 H        -0.421401         1.086068         0.690409
 H        -0.833792        -0.470823        -0.014716
 H         1.892478        -0.679478        -2.078399
 H         1.780318         1.138359        -1.675207
 H         4.357373         0.449066        -1.075749
 H         4.076229         1.368957         1.781213
