19
Iteration:  2789charge 0 multiplicity 1
 C         4.307489        -1.571035         1.177526
 C         3.320812        -0.840005         0.389879
 O         2.078895        -1.522953         0.312941
 C         1.484220        -0.071338         0.112168
 C         0.034018         0.128572         0.619714
 C         1.806700         0.286628        -1.255708
 C         3.368033         0.120667        -0.776821
 C         2.740905         0.488988         0.776513
 O         2.960258         1.519623         1.643923
 H         5.418059        -1.622820         0.959489
 H         4.255683        -0.981038         2.209249
 H         3.975856        -2.635881         1.420419
 H         0.070282        -0.403335         1.601643
 H         0.037514         1.164552         0.905958
 H        -0.681373        -0.202005        -0.139432
 H         1.437737        -0.410459        -2.067862
 H         1.423559         1.300204        -1.524050
 H         4.179208         0.678583        -1.239199
 H         3.282995         1.098839         2.456915
