19
Iteration:  1184
 C         4.368537        -1.629756         1.123812
 C         3.296295        -0.857424         0.408124
 O         2.025387        -1.376644        -0.180423
 C         1.365122        -0.078045        -0.057373
 C        -0.055808        -0.234057         0.301152
 C         2.161773         0.803748        -1.202841
 C         3.444528         0.639569        -0.312562
 C         2.663189         0.361302         0.871239
 O         2.838946         0.974991         2.167060
 H         4.052073        -1.764649         2.147135
 H         4.340760        -2.524487         0.639250
 H         5.255564        -1.051570         1.002195
 H        -0.286767         0.015287         1.356708
 H        -0.697741         0.302429        -0.417030
 H        -0.333475        -1.294073         0.148856
 H         2.206040         0.494187        -2.259045
 H         1.730414         1.764223        -1.178627
 H         4.459113         1.014667        -0.446110
 H         3.286271         1.837866         2.065268
