19
Iteration:  4497charge 0 multiplicity 1
 C         4.177322        -1.813891         1.093715
 C         3.271135        -0.781332         0.426775
 O         2.103766        -1.416138        -0.016257
 C         1.482008        -0.050896         0.007334
 C         0.110991        -0.229660         0.558115
 C         2.081317         0.591327        -1.334514
 C         3.436183         0.474455        -0.463908
 C         2.629330         0.489413         0.850390
 O         2.787581         1.393138         1.924009
 H         4.102348        -2.789699         0.518709
 H         5.161033        -1.424255         1.020665
 H         4.046071        -2.188623         2.186785
 H        -0.469442        -1.038502         0.108705
 H         0.146863        -0.157210         1.688867
 H        -0.434385         0.686880         0.377478
 H         1.913574        -0.038080        -2.194531
 H         1.961875         1.697797        -1.466462
 H         4.448125         0.952939        -0.582545
 H         3.366921         0.965815         2.577332
