19
Iteration:  4428charge 0 multiplicity 1
 C         4.541198        -1.641215         0.767227
 C         3.183466        -0.917503         0.572435
 O         2.003158        -1.533756         0.249661
 C         1.406531        -0.158825         0.053406
 C        -0.082408         0.097553         0.201161
 C         2.028496         0.377564        -1.184446
 C         3.410019         0.450619        -0.419174
 C         2.714308         0.445866         0.916006
 O         2.941102         1.405663         2.009317
 H         4.890836        -1.787591        -0.233350
 H         5.151339        -0.885299         1.418957
 H         4.558992        -2.633275         1.269737
 H        -0.683601        -0.448725        -0.536065
 H        -0.540557         0.172043         1.151030
 H        -0.123696         1.110398        -0.036798
 H         1.917909        -0.482324        -1.968707
 H         1.518619         1.281692        -1.456910
 H         4.349469         0.787725        -0.785183
 H         2.204998         1.522762         2.593267
