19
Iteration:  3789
 C         4.249809        -1.756545         1.026717
 C         3.287022        -0.838802         0.468959
 O         2.062977        -1.429657        -0.120448
 C         1.472215        -0.080110        -0.036593
 C         0.125038         0.010217         0.557604
 C         2.115241         0.646661        -1.303114
 C         3.428141         0.553386        -0.419198
 C         2.710546         0.445969         0.803135
 O         2.744352         1.052185         2.108269
 H         3.705666        -2.691037         1.133348
 H         5.194050        -1.941819         0.479386
 H         4.401428        -1.400261         2.075755
 H        -0.600906         0.662987         0.005751
 H        -0.260340        -1.013358         0.633518
 H         0.238609         0.460171         1.516312
 H         1.938616        -0.025340        -2.128406
 H         1.721467         1.679610        -1.505153
 H         4.319890         0.990562        -0.698859
 H         2.538200         1.981195         1.933744
