19
Iteration:  4471
 C         4.287051        -1.851445         0.931824
 C         3.274357        -0.824082         0.508750
 O         1.985920        -1.447751         0.189108
 C         1.474307        -0.094577         0.040716
 C        -0.037084        -0.179605         0.360476
 C         2.127035         0.562379        -1.228318
 C         3.435551         0.541197        -0.468639
 C         2.772942         0.523851         0.866275
 O         2.800733         1.438560         1.898074
 H         4.529129        -2.490875         0.114246
 H         5.218175        -1.184405         1.093085
 H         4.124017        -2.608074         1.687960
 H        -0.403707        -1.163766         0.087710
 H         0.020322        -0.082910         1.399171
 H        -0.781845         0.552899         0.064247
 H         2.018663         0.061519        -2.268949
 H         1.948799         1.629334        -1.223417
 H         4.449381         0.768080        -0.773623
 H         3.043661         0.986319         2.717661
