19
Iteration:  1599
 C         4.472401        -1.538021         0.887051
 C         3.242971        -0.836015         0.512525
 O         1.915102        -1.476623         0.262268
 C         1.368946        -0.040971         0.012058
 C        -0.081620        -0.060632         0.230771
 C         2.146198         0.532009        -1.230337
 C         3.426598         0.384575        -0.430202
 C         2.691381         0.416538         0.881560
 O         2.843110         1.246799         1.991838
 H         4.393475        -1.563124         1.951017
 H         4.751760        -2.447120         0.221004
 H         5.287555        -0.797993         0.723983
 H        -0.180079        -1.071713         0.610966
 H        -0.547928         0.447465         1.068376
 H        -0.706590         0.154315        -0.662864
 H         1.960592         0.018390        -2.208316
 H         2.293256         1.630537        -1.476014
 H         4.504670         0.523475        -0.593604
 H         3.663095         0.933978         2.373397
