19
Iteration:  4177
 C         4.300431        -1.659358         1.130029
 C         3.286718        -0.930061         0.359169
 O         2.075535        -1.512966         0.002851
 C         1.371499        -0.035863         0.027716
 C        -0.031404        -0.035665         0.551742
 C         2.087031         0.563688        -1.192611
 C         3.450630         0.365784        -0.464499
 C         2.747308         0.420034         0.836676
 O         2.824882         1.346250         1.902768
 H         4.961663        -1.954960         0.397479
 H         4.850777        -1.143361         1.999621
 H         3.776482        -2.516284         1.457856
 H        -0.399573        -1.040558         0.975806
 H        -0.156703         0.624721         1.433362
 H        -0.724336         0.289853        -0.347129
 H         2.041919        -0.058463        -2.111977
 H         1.919222         1.582483        -1.445103
 H         4.358451         0.867804        -0.960975
 H         3.185982         2.188144         1.555421
