19
Iteration:  1208charge 0 multiplicity 1
 C         4.274516        -1.615950         0.953247
 C         3.247488        -0.736230         0.433092
 O         2.097610        -1.316802        -0.117393
 C         1.374571         0.010527        -0.017579
 C        -0.011551        -0.286260         0.210587
 C         2.197588         0.580742        -1.270818
 C         3.422552         0.597149        -0.325504
 C         2.593811         0.486251         0.923871
 O         2.923461         0.934546         2.316196
 H         3.982622        -1.670065         1.969528
 H         3.882150        -2.577655         0.544616
 H         5.244634        -1.178687         0.715317
 H        -0.061122        -0.128536         1.307966
 H        -0.749469         0.314155        -0.312551
 H        -0.322604        -1.320272         0.052726
 H         2.117014         0.006232        -2.185182
 H         2.049546         1.647008        -1.568331
 H         4.338142         1.156629        -0.638022
 H         2.767147         1.869057         2.481744
