19
Iteration:  3920charge 0 multiplicity 1
 C         4.469728        -1.669768         0.799529
 C         3.257763        -0.781417         0.526617
 O         1.995884        -1.474907         0.203160
 C         1.417186         0.031332         0.056707
 C         0.016981         0.082270         0.286801
 C         2.193152         0.477843        -1.252373
 C         3.440703         0.410011        -0.447731
 C         2.617875         0.468118         0.887844
 O         2.758831         1.068356         2.100336
 H         4.537765        -2.042565         1.827892
 H         4.417055        -2.575429         0.221964
 H         5.440014        -1.174584         0.666201
 H        -0.390232         0.997356         0.899648
 H        -0.489717         0.155552        -0.760795
 H        -0.383556        -0.872891         0.675474
 H         2.065999        -0.262734        -2.036954
 H         1.643666         1.416184        -1.535581
 H         4.275579         1.065603        -0.609694
 H         2.612863         2.009576         1.947688
