19
Iteration:  1837
 C         4.348467        -1.810910         1.022802
 C         3.357420        -0.875026         0.399128
 O         2.058060        -1.447716         0.095907
 C         1.431107        -0.177993         0.198952
 C         0.023401         0.012198         0.513177
 C         1.989042         0.471342        -1.217951
 C         3.414503         0.411038        -0.474999
 C         2.692471         0.492182         0.797731
 O         2.807732         1.455299         1.827726
 H         5.016051        -1.355947         1.741623
 H         3.853388        -2.626596         1.570324
 H         5.038239        -2.301184         0.344441
 H        -0.354202        -0.965247         0.727197
 H        -0.320078         0.568070         1.398982
 H        -0.674342         0.393821        -0.224780
 H         1.903465        -0.324835        -2.007776
 H         1.709080         1.461500        -1.546946
 H         4.274858         1.023415        -0.778386
 H         3.390388         2.174506         1.555515
