19
Iteration:  4041
 C         4.507607        -1.614164         0.899927
 C         3.263921        -0.842701         0.506771
 O         1.971102        -1.485055         0.172218
 C         1.422119        -0.016212         0.132018
 C        -0.148605         0.052121         0.200016
 C         2.051034         0.417430        -1.231173
 C         3.381788         0.419516        -0.484502
 C         2.715274         0.464583         0.878126
 O         2.949278         1.186134         2.097040
 H         4.286120        -2.682669         0.584188
 H         5.434131        -1.435580         0.407779
 H         4.636072        -1.737840         1.996287
 H        -0.381618         0.595244         1.161252
 H        -0.410978         0.674376        -0.714119
 H        -0.626089        -1.001208         0.180517
 H         1.920887        -0.188145        -2.102905
 H         1.766931         1.475912        -1.441143
 H         4.419985         0.808968        -0.738590
 H         2.678855         2.140809         1.984232
