19
Iteration:  1109charge 0 multiplicity 1
 C         4.410762        -1.658463         0.636433
 C         3.252697        -0.758135         0.566838
 O         1.991147        -1.437092         0.058262
 C         1.435040        -0.044700        -0.013988
 C         0.013738        -0.067771         0.327183
 C         2.433192         0.497057        -1.341215
 C         3.441340         0.605386        -0.268202
 C         2.611008         0.478180         0.979683
 O         2.602891         1.039325         2.222517
 H         4.016251        -2.664656         0.879819
 H         4.917970        -1.561995        -0.353932
 H         5.064340        -1.321605         1.445730
 H        -0.106967         0.222624         1.354514
 H        -0.538116         0.686683        -0.205919
 H        -0.420381        -1.014964         0.048639
 H         2.386243        -0.331694        -2.066777
 H         1.992276         1.429396        -1.686727
 H         4.486641         0.783988        -0.223677
 H         2.284502         1.953693         2.115162
