19
Iteration:  1881
 C         4.443325        -1.680637         0.818985
 C         3.222642        -0.790679         0.497554
 O         1.930062        -1.486400         0.285716
 C         1.477684        -0.052755         0.042868
 C         0.042464         0.060278         0.584094
 C         2.169114         0.343783        -1.320788
 C         3.471263         0.239900        -0.540329
 C         2.636937         0.542826         0.788960
 O         2.776378         1.344338         1.941637
 H         4.742625        -1.613314         1.879260
 H         4.260403        -2.784471         0.626593
 H         5.361138        -1.389771         0.310631
 H        -0.286163        -0.702129         1.277325
 H        -0.138383         1.130388         0.987733
 H        -0.658302         0.165626        -0.303957
 H         1.945021        -0.246756        -2.265191
 H         1.968515         1.407961        -1.381604
 H         4.464107         0.637159        -0.658938
 H         2.240508         2.151311         1.866399
