19
Iteration:  2867
 C         4.412469        -1.787256         0.907168
 C         3.305239        -0.847333         0.555304
 O         2.019583        -1.441615         0.443392
 C         1.455683        -0.088916         0.159539
 C        -0.125135         0.180946         0.502015
 C         1.958831         0.132406        -1.230175
 C         3.359912         0.237417        -0.632732
 C         2.869984         0.565032         0.751119
 O         2.912542         1.585240         1.742041
 H         5.352350        -1.153748         0.881239
 H         4.363578        -2.473456         1.861016
 H         4.525642        -2.611680         0.129053
 H        -0.230386         0.440979         1.561935
 H        -0.568667         0.899056        -0.201730
 H        -0.577670        -0.811147         0.361294
 H         1.628030        -0.785087        -1.809411
 H         1.683111         1.126878        -1.601323
 H         4.288506         0.422236        -1.101832
 H         2.550926         2.389492         1.244532
