19
Iteration:  3799charge 0 multiplicity 1
 C         4.180299        -1.784280         1.081952
 C         3.250384        -0.854040         0.396434
 O         2.099965        -1.380349        -0.109401
 C         1.497984        -0.000081        -0.029718
 C         0.160585        -0.046030         0.544339
 C         2.059794         0.644422        -1.211094
 C         3.484138         0.527536        -0.439633
 C         2.624591         0.429755         0.853243
 O         2.781214         1.072246         1.989382
 H         3.742661        -2.695334         1.379457
 H         5.098874        -2.034625         0.486310
 H         4.657874        -1.385582         1.984986
 H        -0.651638         0.362797        -0.174224
 H        -0.169538        -1.106716         0.514850
 H        -0.038508         0.189850         1.558793
 H         2.064954         0.157890        -2.175536
 H         1.617285         1.668082        -1.291520
 H         4.296262         1.185695        -0.393806
 H         2.958122         2.016137         2.099985
