19
Iteration:  4006charge 0 multiplicity 1
 C         4.269903        -1.743528         1.052767
 C         3.275723        -0.817963         0.380165
 O         1.996088        -1.493624         0.074877
 C         1.457072        -0.034649         0.036637
 C        -0.000397        -0.165423         0.460360
 C         2.151313         0.569605        -1.403376
 C         3.416741         0.519841        -0.489594
 C         2.689289         0.530047         0.871788
 O         2.891653         1.224190         2.074758
 H         3.538407        -2.577940         1.029369
 H         5.319044        -1.887771         0.558736
 H         4.390202        -1.381073         2.117884
 H        -0.083728         0.437343         1.459384
 H        -0.912526         0.258045        -0.047654
 H        -0.261926        -1.163805         0.778707
 H         2.026959         0.054227        -2.369775
 H         1.927440         1.667306        -1.495867
 H         4.452433         0.883421        -0.665298
 H         3.053611         2.161876         1.760731
