19
Iteration:  1459
 C         4.371373        -1.700445         0.934388
 C         3.330016        -0.720714         0.469569
 O         2.158370        -1.447359         0.115781
 C         1.476042        -0.151513         0.041900
 C        -0.004291        -0.065883         0.289596
 C         2.073102         0.512281        -1.273676
 C         3.345359         0.529287        -0.473796
 C         2.613962         0.474374         0.892300
 O         2.794256         1.154297         2.146428
 H         5.392224        -1.379562         1.088043
 H         3.934362        -2.360490         1.808869
 H         4.327440        -2.476689         0.106665
 H        -0.168360         0.060278         1.400976
 H        -0.350467         0.914555        -0.170833
 H        -0.532544        -0.893118        -0.307769
 H         2.164573         0.092803        -2.283365
 H         1.640230         1.562758        -1.226459
 H         4.239783         1.027043        -0.777263
 H         2.417192         2.047242         2.039615
