19
Iteration:  1075charge 0 multiplicity 1
 C         4.490658        -1.756055         0.624821
 C         3.331947        -0.767185         0.531727
 O         2.024333        -1.404142         0.154461
 C         1.519247        -0.057963         0.050454
 C        -0.036772        -0.039140         0.130174
 C         2.203775         0.543982        -1.239549
 C         3.434757         0.555925        -0.339677
 C         2.626959         0.441189         1.034578
 O         2.569849         1.122539         2.228947
 H         4.153897        -2.756802         0.993437
 H         5.004618        -1.937829        -0.272196
 H         5.243129        -1.532392         1.333393
 H        -0.259981        -0.411851         1.103117
 H        -0.448060         0.935957        -0.016246
 H        -0.412693        -0.782660        -0.547141
 H         2.269159        -0.114861        -2.111270
 H         1.881842         1.492637        -1.519438
 H         4.437243         0.923752        -0.367342
 H         2.535499         2.080234         2.204007
