19
Iteration:  1244
 C         4.451058        -1.713955         0.874687
 C         3.337660        -0.834814         0.467301
 O         2.089545        -1.437805         0.148541
 C         1.453968        -0.020882         0.028752
 C        -0.055323        -0.070341         0.102370
 C         2.078549         0.649078        -1.152784
 C         3.361908         0.669634        -0.416374
 C         2.710620         0.429056         0.909777
 O         2.724156         0.976189         2.182124
 H         4.551135        -1.971664         1.909647
 H         4.564908        -2.638941         0.243428
 H         5.502608        -1.454988         0.670833
 H        -0.525166        -0.419484         1.001916
 H        -0.284627         0.965910        -0.047367
 H        -0.286650        -0.747822        -0.713593
 H         2.027634         0.152557        -2.118012
 H         1.631983         1.698572        -1.085442
 H         4.281003         1.142167        -0.636912
 H         2.223423         1.798706         2.160382
