19
Iteration:  2919charge 0 multiplicity 1
 C         4.468211        -1.582573         0.986752
 C         3.169553        -0.874255         0.645554
 O         1.876859        -1.472013         0.441451
 C         1.372808        -0.047443         0.163030
 C        -0.097555         0.074886         0.507666
 C         2.002727         0.174691        -1.317204
 C         3.300623         0.191658        -0.668268
 C         2.788809         0.539755         0.707241
 O         3.148475         1.592748         1.644533
 H         5.051020        -1.063265         1.755859
 H         4.232673        -2.576775         1.445387
 H         5.122803        -1.728616         0.123277
 H        -0.304794        -0.126953         1.584260
 H        -0.440023         1.004255         0.093796
 H        -0.671206        -0.667664        -0.031221
 H         1.777468        -0.743785        -1.912224
 H         1.711689         1.125153        -1.784523
 H         4.272912         0.359966        -1.004393
 H         3.545577         1.218544         2.483784
