19
Iteration:   679charge 0 multiplicity 1
 C         4.460599        -1.814718         0.795160
 C         3.363720        -0.905670         0.432928
 O         2.125716        -1.448355        -0.167050
 C         1.391417        -0.113731        -0.022869
 C        -0.025031        -0.152675         0.199306
 C         2.156132         0.889638        -0.945813
 C         3.512209         0.552110        -0.221866
 C         2.543004         0.347117         0.983072
 O         2.647243         1.250283         2.041568
 H         3.977052        -2.573902         1.445030
 H         4.763297        -2.263687        -0.136470
 H         5.194858        -1.319730         1.503995
 H        -0.491850         0.588398        -0.450719
 H        -0.393713        -1.154986         0.328005
 H        -0.098430         0.470769         1.062830
 H         1.899157         0.793440        -2.004505
 H         1.854767         1.800322        -0.528850
 H         4.551323         0.971348        -0.210050
 H         2.318502         0.672515         2.776027
