19
Iteration:  1352charge 0 multiplicity 1
 C         4.349600        -1.796859         1.024264
 C         3.427074        -0.760256         0.401780
 O         2.143352        -1.382771        -0.005452
 C         1.533814        -0.123022         0.031553
 C         0.034823        -0.080512         0.302658
 C         1.998647         0.565639        -1.124851
 C         3.437165         0.545440        -0.488880
 C         2.699252         0.495121         0.894904
 O         2.614052         1.122364         2.118870
 H         4.137309        -2.718003         0.523821
 H         5.474818        -1.569221         0.804882
 H         4.013831        -1.908589         2.083069
 H        -0.197086        -1.169675         0.439267
 H        -0.376204         0.576591         1.107631
 H        -0.667189         0.233796        -0.552360
 H         1.798046         0.195261        -2.097260
 H         1.768524         1.675308        -1.174267
 H         4.218803         1.068112        -0.971148
 H         2.717672         2.072282         1.956424
