19
Iteration:  1291charge 0 multiplicity 1
 C         4.483101        -1.582583         0.780835
 C         3.258168        -0.936128         0.536852
 O         2.076539        -1.482863        -0.121217
 C         1.424703        -0.124130        -0.012543
 C        -0.071083         0.041379         0.375745
 C         2.243901         0.581130        -1.252446
 C         3.458320         0.465819        -0.241196
 C         2.613810         0.330278         0.994234
 O         2.562862         1.234263         2.112727
 H         4.527803        -2.460939         1.526349
 H         5.057346        -1.867540        -0.052140
 H         5.131929        -0.855109         1.268544
 H        -0.155414        -0.923662         0.878975
 H        -0.175848         0.740537         1.199093
 H        -0.749337         0.072511        -0.467210
 H         2.274451        -0.063959        -2.190035
 H         1.961072         1.595319        -1.439331
 H         4.493619         0.932247        -0.284041
 H         3.223677         1.930603         1.946050
