19
Iteration:  2848charge 0 multiplicity 1
 C         4.406137        -1.723731         0.938226
 C         3.263906        -0.843082         0.553617
 O         1.921578        -1.412104         0.412865
 C         1.457917        -0.047846         0.120541
 C         0.138349         0.070508         0.647968
 C         2.002029         0.180976        -1.372381
 C         3.371847         0.185038        -0.562100
 C         2.668413         0.554980         0.750608
 O         2.863156         1.554679         1.694734
 H         5.388742        -1.380602         0.635666
 H         4.338686        -2.022715         1.989561
 H         4.143939        -2.673287         0.459449
 H         0.123099         0.233292         1.723453
 H        -0.344605         0.882031         0.004544
 H        -0.489072        -0.865616         0.512137
 H         1.926270        -0.590930        -2.127722
 H         1.693349         1.189682        -1.662620
 H         4.292990         0.554697        -1.082221
 H         3.428271         2.317775         1.342502
