19
Iteration:  2671
 C         4.291689        -1.870617         1.005100
 C         3.337262        -0.868656         0.487344
 O         1.974371        -1.466590         0.335189
 C         1.390242        -0.111791         0.154201
 C        -0.002012        -0.014557         0.611827
 C         2.000982         0.245744        -1.190869
 C         3.355768         0.242000        -0.584662
 C         2.781381         0.659722         0.701135
 O         3.012282         1.712446         1.568330
 H         4.975305        -1.309645         1.656485
 H         3.924739        -2.678052         1.530755
 H         5.060902        -2.121241         0.274986
 H         0.129595         0.100618         1.790344
 H        -0.470850         0.959125         0.252617
 H        -0.608005        -0.951934         0.351234
 H         1.677635        -0.517253        -1.925642
 H         1.673795         1.232680        -1.494458
 H         4.202811         0.711410        -1.134361
 H         2.557129         1.711197         2.450089
