19
Iteration:  3537charge 0 multiplicity 1
 C         4.438308        -1.588521         0.851589
 C         3.226629        -0.835026         0.530376
 O         2.030061        -1.492141         0.247895
 C         1.406044        -0.078129         0.092650
 C        -0.035658         0.284060         0.314141
 C         2.093971         0.389063        -1.226816
 C         3.443462         0.358857        -0.538439
 C         2.697689         0.507625         0.809912
 O         2.861331         1.033382         2.019625
 H         4.406511        -1.895152         1.910370
 H         4.537996        -2.643930         0.501770
 H         5.281393        -0.924101         0.744358
 H        -0.733227        -0.577631         0.272337
 H        -0.123600         0.584193         1.342745
 H        -0.266215         1.045852        -0.385225
 H         1.777814        -0.332528        -1.982139
 H         1.673610         1.346141        -1.612816
 H         4.387357         0.881897        -0.777101
 H         2.321624         1.827223         2.138357
