19
Iteration:  2226
 C         4.377531        -1.653836         0.891960
 C         3.247379        -0.784552         0.497300
 O         1.955228        -1.496912         0.510719
 C         1.440319        -0.089468         0.102679
 C        -0.018668         0.306515         0.489676
 C         1.949049         0.146428        -1.280121
 C         3.396667         0.271879        -0.676701
 C         2.798555         0.580384         0.711561
 O         2.943013         1.319187         1.865875
 H         4.283459        -2.295265         1.756429
 H         4.419734        -2.402207         0.154835
 H         5.378678        -1.253176         0.919094
 H        -0.069821         0.454221         1.574445
 H        -0.364914         1.283344         0.086076
 H        -0.756424        -0.510972         0.225867
 H         1.879612        -0.747606        -1.912431
 H         1.501076         0.959557        -1.847568
 H         4.440056         0.285682        -1.072707
 H         3.391748         2.182505         1.693805
