19
Iteration:  1863
 C         4.393694        -1.693365         0.905969
 C         3.202929        -0.914285         0.579062
 O         1.975449        -1.455366         0.249387
 C         1.418967        -0.113130         0.027450
 C         0.082792        -0.006617         0.553080
 C         2.134941         0.484860        -1.331224
 C         3.424171         0.367631        -0.490525
 C         2.746719         0.461776         0.801275
 O         2.768461         1.408183         1.868946
 H         4.940611        -1.629602         1.837319
 H         4.037688        -2.750956         0.925356
 H         5.092386        -1.776229         0.067160
 H        -0.158293        -0.944197         1.121316
 H        -0.043633         0.778732         1.321875
 H        -0.861555         0.232363         0.054976
 H         2.188461        -0.042500        -2.267462
 H         1.876218         1.554956        -1.553061
 H         4.391739         0.481512        -0.938598
 H         2.546684         2.249630         1.429545
