19
Iteration:  1007charge 0 multiplicity 1
 C         4.325310        -1.562569         1.099926
 C         3.259886        -0.809669         0.373528
 O         2.011763        -1.372684        -0.149771
 C         1.390438        -0.050260        -0.062682
 C        -0.092211        -0.261957         0.320679
 C         2.210139         0.754180        -1.224694
 C         3.457525         0.529508        -0.338480
 C         2.662945         0.416307         0.876730
 O         2.850106         0.989519         2.182408
 H         4.049937        -1.714833         2.163321
 H         4.615008        -2.504947         0.811805
 H         5.271434        -1.007858         1.149366
 H         0.002595        -1.330154         0.546976
 H        -0.355328         0.302684         1.236776
 H        -0.705029        -0.353937        -0.570911
 H         2.132468         0.279885        -2.206586
 H         1.851123         1.716465        -1.291427
 H         4.458250         1.071359        -0.441721
 H         3.083634         1.920162         1.962086
