19
Iteration:  2878
 C         4.437528        -1.750598         0.869794
 C         3.303873        -0.890677         0.510813
 O         2.027473        -1.511490         0.542567
 C         1.373978        -0.068350         0.263247
 C        -0.159508         0.180676         0.461161
 C         1.989476         0.144666        -1.256139
 C         3.390157         0.250805        -0.659790
 C         2.855174         0.544837         0.781642
 O         2.991243         1.593758         1.710742
 H         5.393392        -1.223520         1.206751
 H         4.028132        -2.323437         1.826836
 H         4.647272        -2.321571        -0.088974
 H        -0.565389         0.572378         1.400997
 H        -0.470673         0.926282        -0.296326
 H        -0.766903        -0.703868         0.225660
 H         1.935781        -0.559526        -2.162517
 H         1.551574         1.067244        -1.679804
 H         4.211365         0.574726        -1.248895
 H         2.228159         2.181599         1.558244
