19
Iteration:  4993
 C         4.285435        -1.789696         1.036637
 C         3.269330        -0.828458         0.351331
 O         2.042438        -1.403985        -0.080715
 C         1.424617        -0.029102         0.020365
 C         0.029947        -0.162173         0.459703
 C         2.142522         0.644535        -1.271945
 C         3.443866         0.500856        -0.466789
 C         2.707828         0.491443         0.909928
 O         2.793201         1.280362         2.059839
 H         4.014392        -2.791807         0.705881
 H         5.396382        -1.694004         0.878896
 H         4.117225        -1.737873         2.121116
 H        -0.557224        -0.781238        -0.269269
 H        -0.051708        -0.822523         1.372236
 H        -0.402905         0.805684         0.849328
 H         2.227192         0.026986        -2.268403
 H         1.659512         1.661099        -1.379599
 H         4.330922         1.201841        -0.523709
 H         3.020031         0.632706         2.791457
