19
Iteration:   981
 C         4.196402        -1.624973         1.052429
 C         3.321266        -0.647517         0.382048
 O         2.153434        -1.334051        -0.038284
 C         1.450990        -0.080899         0.029834
 C         0.026450        -0.174116         0.285890
 C         2.123016         0.591887        -1.310028
 C         3.431711         0.583187        -0.455420
 C         2.632925         0.581577         0.848469
 O         2.807863         0.832498         2.254704
 H         3.867845        -1.739808         2.063687
 H         4.334866        -2.702190         0.691397
 H         5.226177        -1.213507         1.181768
 H        -0.066463        -1.293465         0.517508
 H        -0.100871         0.367140         1.252622
 H        -0.656536        -0.071182        -0.594431
 H         2.060658        -0.059650        -2.176309
 H         1.733374         1.654794        -1.609893
 H         4.314627         1.018881        -0.782436
 H         2.484796         1.751704         2.422140
