19
Iteration:  1165
 C         4.348869        -1.658447         1.067795
 C         3.350153        -0.823522         0.317980
 O         2.123961        -1.505482        -0.113459
 C         1.443259        -0.092310        -0.014039
 C        -0.011757        -0.081782         0.235876
 C         2.096797         0.850671        -1.009157
 C         3.414544         0.508655        -0.408460
 C         2.686233         0.320374         0.894811
 O         2.695307         1.030698         2.109057
 H         3.928492        -1.919202         2.035045
 H         4.818833        -2.635161         0.632626
 H         5.145347        -0.860315         1.168519
 H        -0.195901         0.171445         1.288316
 H        -0.472010         0.539470        -0.515981
 H        -0.454283        -1.079095         0.245529
 H         1.845012         0.642733        -2.057668
 H         1.639574         1.892340        -0.789604
 H         4.351690         1.100069        -0.492545
 H         3.114349         1.884326         1.959106
