19
Iteration:  1118charge 0 multiplicity 1
 C         4.486510        -1.695286         0.728594
 C         3.244247        -0.804856         0.451959
 O         2.028117        -1.429941         0.041648
 C         1.467685        -0.045978        -0.047189
 C        -0.022358        -0.000037         0.327672
 C         2.319732         0.524242        -1.315762
 C         3.456454         0.600774        -0.218988
 C         2.581432         0.438430         0.958976
 O         2.605491         1.064801         2.230538
 H         4.140473        -2.711852         0.945457
 H         5.002910        -1.854388        -0.141034
 H         5.156429        -1.319150         1.431300
 H        -0.140920         0.135834         1.384330
 H        -0.610017         0.657117        -0.303985
 H        -0.436180        -1.008759         0.227330
 H         2.364561        -0.166794        -2.200467
 H         1.980964         1.427566        -1.634375
 H         4.464047         0.941930        -0.309429
 H         2.295904         1.970366         2.061636
