19
Iteration:  4222
 C         4.443838        -1.613295         0.808393
 C         3.262038        -0.800987         0.520018
 O         1.989405        -1.507443         0.316786
 C         1.391372        -0.081471         0.063567
 C        -0.153392         0.124685         0.224499
 C         2.155910         0.361103        -1.290802
 C         3.434242         0.431088        -0.549714
 C         2.767081         0.487270         0.912052
 O         2.853119         1.173438         2.107010
 H         4.705401        -2.295487         0.079747
 H         5.331098        -0.907521         0.983494
 H         4.383586        -2.013542         1.815432
 H        -0.616683        -0.911518         0.524600
 H        -0.356365         0.623967         1.232879
 H        -0.690421         0.635207        -0.632230
 H         1.942177        -0.425736        -2.035664
 H         1.707395         1.308059        -1.669690
 H         4.486789         0.758532        -0.733948
 H         2.780828         2.103327         1.840022
