19
Iteration:   680charge 0 multiplicity 1
 C         4.458462        -1.811495         0.794067
 C         3.355262        -0.904943         0.432139
 O         2.124694        -1.445377        -0.163782
 C         1.392520        -0.107945        -0.029684
 C        -0.022550        -0.156702         0.202772
 C         2.160722         0.889113        -0.949027
 C         3.511783         0.548011        -0.224414
 C         2.541307         0.345041         0.982739
 O         2.652998         1.249601         2.043404
 H         3.990517        -2.558400         1.432936
 H         4.780016        -2.242953        -0.101174
 H         5.205380        -1.355015         1.479832
 H        -0.506609         0.565638        -0.445076
 H        -0.380951        -1.157751         0.311456
 H        -0.115143         0.448922         1.083886
 H         1.931798         0.797845        -1.970173
 H         1.846491         1.799222        -0.529013
 H         4.538078         0.966821        -0.206445
 H         2.264393         0.695531         2.783011
