19
Iteration:    17
 C         4.315174        -1.835803         0.735665
 C         3.279326        -0.773941         0.436119
 O         2.045256        -1.291918        -0.220868
 C         1.503931         0.049686        -0.007583
 C        -0.018568        -0.091452         0.288633
 C         2.296621         0.704432        -1.194657
 C         3.599844         0.571219        -0.225423
 C         2.643811         0.434259         1.041844
 O         2.535646         1.041337         2.295734
 H         3.777417        -2.557159         1.403278
 H         4.645818        -2.332928        -0.204006
 H         5.266636        -1.489423         1.194251
 H        -0.065661        -0.354476         1.405706
 H        -0.579090         0.804156        -0.053971
 H        -0.342080        -0.950110        -0.342182
 H         2.288631        -0.122082        -2.068606
 H         2.023770         1.754558        -1.514871
 H         4.701508         0.689401        -0.366130
 H         2.307820         0.321616         2.883290
