19
Iteration:  4201charge 0 multiplicity 1
 C         4.476106        -1.645290         0.971873
 C         3.225702        -0.875258         0.494262
 O         1.928043        -1.387782         0.171515
 C         1.413131        -0.103271        -0.001619
 C         0.059185         0.013006         0.394784
 C         2.121481         0.409330        -1.300336
 C         3.362218         0.401032        -0.446780
 C         2.617796         0.514331         0.821843
 O         2.855608         1.215554         2.012138
 H         4.967778        -2.083165         0.129924
 H         5.240257        -0.960817         1.497459
 H         4.189262        -2.416220         1.702896
 H        -0.418974        -0.984027         0.701182
 H        -0.110467         0.648402         1.302888
 H        -0.452395         0.396131        -0.487504
 H         2.052622        -0.155053        -2.254379
 H         1.680041         1.440567        -1.390224
 H         4.401755         0.687799        -0.714291
 H         3.361931         2.051528         1.797045
