19
Iteration:  2225
 C         4.386082        -1.653276         0.893646
 C         3.240527        -0.785891         0.484857
 O         1.961014        -1.499541         0.516319
 C         1.443746        -0.093640         0.096791
 C        -0.025038         0.307548         0.486485
 C         1.950977         0.159784        -1.269988
 C         3.386516         0.273991        -0.675841
 C         2.800080         0.571597         0.712375
 O         2.945573         1.320601         1.864126
 H         4.254156        -2.285578         1.803950
 H         4.411583        -2.453540         0.186262
 H         5.389791        -1.247944         0.913344
 H        -0.076243         0.462381         1.567387
 H        -0.359163         1.264176         0.090739
 H        -0.751968        -0.492846         0.187130
 H         1.876884        -0.743268        -1.891986
 H         1.478959         0.967352        -1.861504
 H         4.426237         0.294153        -1.057587
 H         3.415147         2.177561         1.674670
