19
Iteration:  1090charge 0 multiplicity 1
 C         4.412475        -1.702009         0.585828
 C         3.187272        -0.803433         0.595863
 O         2.038500        -1.398191         0.159997
 C         1.450834        -0.021601        -0.061526
 C         0.036156        -0.075007         0.225185
 C         2.324021         0.434175        -1.222870
 C         3.512736         0.589024        -0.258378
 C         2.673560         0.570253         0.932134
 O         2.560956         1.050541         2.270451
 H         3.986671        -2.717191         0.607659
 H         4.822722        -1.507681        -0.542146
 H         5.164559        -1.314019         1.363616
 H        -0.135707        -0.264164         1.325711
 H        -0.568659         0.756623        -0.185275
 H        -0.473063        -0.925306        -0.304047
 H         2.342289        -0.302635        -2.064889
 H         1.884319         1.490009        -1.702314
 H         4.518072         0.868670        -0.606148
 H         2.464180         2.018417         2.117277
