19
Iteration:   756
 C         4.445687        -1.665914         0.842291
 C         3.345762        -0.735631         0.431649
 O         2.116381        -1.468971         0.030416
 C         1.452323        -0.156880         0.000188
 C         0.013349         0.041797         0.168570
 C         2.119276         0.690759        -1.176585
 C         3.418645         0.679922        -0.347984
 C         2.654174         0.444346         0.915835
 O         2.624130         0.822595         2.267464
 H         4.106166        -2.228310         1.749394
 H         4.837391        -2.252927        -0.001226
 H         5.350063        -1.062347         1.107864
 H        -0.180198         1.110182         0.178142
 H        -0.426879        -0.314569        -0.752629
 H        -0.338370        -0.419073         1.055414
 H         2.205927         0.088306        -2.116944
 H         1.492968         1.532912        -1.304105
 H         4.362290         1.087104        -0.618621
 H         2.118627         1.645018         2.366905
