19
Iteration:  1454
 C         4.376512        -1.728045         0.933308
 C         3.340098        -0.695591         0.441606
 O         2.151443        -1.449380         0.156125
 C         1.477192        -0.189400         0.064248
 C         0.016059        -0.052484         0.232479
 C         2.053599         0.504512        -1.233160
 C         3.337875         0.548021        -0.497027
 C         2.614460         0.517536         0.898269
 O         2.789047         1.110757         2.123686
 H         5.412042        -1.335899         1.029128
 H         3.923203        -2.072749         1.812232
 H         4.291989        -2.511568         0.199899
 H        -0.288830        -0.034023         1.262734
 H        -0.280153         0.909951        -0.116296
 H        -0.557107        -0.768744        -0.279557
 H         2.075840         0.123498        -2.279835
 H         1.699121         1.505964        -1.150976
 H         4.287858         1.100866        -0.694745
 H         2.571141         2.077079         2.099766
