19
Iteration:  3934
 C         4.433750        -1.688231         0.947104
 C         3.301807        -0.887161         0.426839
 O         1.997410        -1.464659         0.106344
 C         1.447702        -0.112390         0.021100
 C        -0.074589         0.088150         0.382993
 C         2.138425         0.530946        -1.212913
 C         3.457366         0.522781        -0.424118
 C         2.722635         0.434117         0.868927
 O         2.716920         1.133113         2.028676
 H         4.230442        -2.115961         1.967561
 H         4.594952        -2.443994         0.212307
 H         5.353173        -1.121000         0.866111
 H        -0.100375         0.802834         1.143006
 H        -0.748508         0.363340        -0.430126
 H        -0.346467        -0.880717         0.871605
 H         2.072775        -0.052572        -2.162824
 H         1.955084         1.591981        -1.471961
 H         4.554179         0.826703        -0.674265
 H         2.641901         2.106101         1.831036
