19
Iteration:  3522
 C         4.365379        -1.660925         0.950402
 C         3.263259        -0.826490         0.475868
 O         1.961107        -1.434568         0.207413
 C         1.447557        -0.074724         0.032234
 C        -0.007721         0.142567         0.394118
 C         2.094999         0.353014        -1.317978
 C         3.366852         0.453652        -0.472327
 C         2.653684         0.468375         0.857639
 O         2.953537         1.143351         2.019053
 H         4.205706        -2.208381         1.929747
 H         4.515473        -2.276597         0.063816
 H         5.356327        -1.131185         1.015501
 H        -0.568147        -0.617600        -0.105545
 H        -0.241641         0.119048         1.466384
 H        -0.414617         1.118357        -0.028127
 H         2.184255        -0.335760        -2.198053
 H         1.801120         1.369386        -1.581098
 H         4.374879         0.717938        -0.692463
 H         2.710810         2.071519         1.902910
