19
Iteration:  1303
 C         4.560518        -1.691124         0.858934
 C         3.223837        -0.843793         0.521512
 O         2.002108        -1.429294        -0.079397
 C         1.491705        -0.054953        -0.034229
 C         0.055616        -0.091943         0.441081
 C         2.269171         0.578183        -1.222184
 C         3.400412         0.548215        -0.282644
 C         2.559996         0.418587         0.926095
 O         2.537330         1.163199         2.041298
 H         4.236762        -2.734342         1.235937
 H         5.093834        -1.766729        -0.067955
 H         5.104050        -1.147243         1.638691
 H        -0.293696        -1.057737         0.846301
 H        -0.099856         0.743876         1.156043
 H        -0.676893         0.242830        -0.327265
 H         2.304262        -0.153307        -2.090217
 H         1.939714         1.521113        -1.583926
 H         4.476069         0.906326        -0.225943
 H         3.300377         1.781372         1.951853
