19
Iteration:   252charge 0 multiplicity 1
 C         4.361121        -1.854862         0.694427
 C         3.317806        -0.841832         0.462617
 O         2.169473        -1.448159        -0.087571
 C         1.502927         0.000107        -0.016736
 C         0.075874         0.105014         0.256353
 C         2.280840         0.817160        -1.159279
 C         3.483592         0.692961        -0.279781
 C         2.648019         0.349478         1.040265
 O         2.425740         0.856129         2.260903
 H         3.956681        -2.720485         1.260454
 H         4.692632        -2.182601        -0.297492
 H         5.267690        -1.551249         1.078330
 H        -0.073252         0.922449         0.935799
 H        -0.618475         0.271572        -0.527201
 H        -0.341360        -0.708554         0.737746
 H         2.354552         0.385737        -2.080275
 H         1.843937         1.927263        -1.205931
 H         4.568168         1.026440        -0.541389
 H         1.550771         1.315022         2.328088
