19
Iteration:  1656charge 0 multiplicity 1
 C         4.288568        -1.733725         1.009153
 C         3.313774        -0.798811         0.485186
 O         2.060412        -1.437395         0.169495
 C         1.435363        -0.177626         0.056546
 C        -0.048769        -0.102697         0.519678
 C         2.108032         0.446901        -1.300095
 C         3.406835         0.564390        -0.502942
 C         2.705355         0.483471         0.799878
 O         2.879239         1.336002         1.888591
 H         3.888947        -2.737915         1.096293
 H         5.155321        -1.894125         0.269105
 H         4.700813        -1.307772         1.946947
 H        -0.496844        -0.855930        -0.115654
 H        -0.045116        -0.123006         1.630003
 H        -0.298303         0.893734         0.139501
 H         2.160851        -0.178170        -2.229477
 H         1.851747         1.480809        -1.664437
 H         4.333849         1.130505        -0.649340
 H         1.976266         1.473672         2.265869
