19
Iteration:  4844
 C         4.219572        -1.905285         0.902881
 C         3.354500        -0.843054         0.458915
 O         2.061094        -1.408281        -0.026100
 C         1.503588        -0.095052         0.067037
 C         0.044961        -0.302710         0.458761
 C         2.128666         0.787606        -1.190294
 C         3.450628         0.478515        -0.420009
 C         2.721428         0.426866         0.930818
 O         2.708752         1.456836         1.906526
 H         4.724692        -2.730049         0.305325
 H         5.033187        -1.450734         1.503603
 H         3.449695        -2.556947         1.492427
 H        -0.511999        -0.270054        -0.500869
 H        -0.133068        -1.222573         1.203010
 H        -0.249724         0.653338         0.847899
 H         1.997592         0.569099        -2.246502
 H         2.003962         1.872056        -1.043377
 H         4.445152         0.999062        -0.590062
 H         2.611153         1.247320         2.860785
