19
Iteration:  2333charge 0 multiplicity 1
 C         4.225337        -1.738818         1.082985
 C         3.198875        -0.859887         0.500846
 O         1.893270        -1.372139         0.317226
 C         1.392010        -0.044420         0.137158
 C         0.007180        -0.041781         0.605626
 C         1.994114         0.276652        -1.277881
 C         3.391447         0.285889        -0.588516
 C         2.813129         0.561450         0.722634
 O         3.171257         1.521128         1.578555
 H         3.983829        -1.952320         2.184075
 H         4.528303        -2.596402         0.410485
 H         5.145212        -1.082986         1.143460
 H        -0.141841        -0.720554         1.432786
 H        -0.282243         0.953976         0.887374
 H        -0.774707        -0.242262        -0.141356
 H         1.616570        -0.520171        -1.941070
 H         1.755118         1.308880        -1.679335
 H         4.431468         0.378759        -0.942734
 H         3.212716         1.273934         2.535766
