19
Iteration:  3463
 C         4.281332        -1.946109         1.077275
 C         3.308519        -0.898347         0.491262
 O         1.997918        -1.431696         0.168202
 C         1.449021        -0.084955         0.033115
 C        -0.060152        -0.141678         0.388859
 C         2.007879         0.689201        -1.117345
 C         3.389202         0.371219        -0.453854
 C         2.777195         0.410500         0.889138
 O         2.946024         1.536920         1.701531
 H         3.769738        -2.908266         1.214671
 H         5.209763        -2.236754         0.519767
 H         4.561055        -1.536322         2.026650
 H        -0.709569         0.312154        -0.490857
 H        -0.253247        -1.288147         0.430990
 H        -0.346535         0.327941         1.324382
 H         1.841590         0.464510        -2.177340
 H         1.708131         1.762299        -0.866402
 H         4.363270         0.962041        -0.496054
 H         3.684445         2.103829         1.320485
