19
Iteration:  2558
 C         4.506458        -1.547415         0.952618
 C         3.147160        -0.879205         0.483339
 O         1.848777        -1.456161         0.605595
 C         1.366947        -0.038679         0.073243
 C        -0.041520         0.151422         0.506424
 C         1.956730         0.091263        -1.371806
 C         3.298759         0.238310        -0.594730
 C         2.758905         0.564367         0.735815
 O         3.201366         1.438583         1.698291
 H         4.437695        -2.057305         1.903020
 H         4.993846        -2.147513         0.104843
 H         5.141838        -0.685154         1.112758
 H        -0.645955        -0.296311         1.342663
 H        -0.222586         1.258027         0.625361
 H        -0.526292        -0.142079        -0.479837
 H         1.763279        -0.684136        -2.135326
 H         1.633280         1.105900        -1.767401
 H         4.224785         0.467294        -1.055959
 H         3.244275         0.946194         2.503333
