19
Iteration:   689charge 0 multiplicity 1
 C         4.416960        -1.786499         0.798108
 C         3.255099        -0.852612         0.417260
 O         2.106897        -1.413534        -0.141578
 C         1.491487        -0.074912        -0.065878
 C        -0.026828        -0.159893         0.247878
 C         2.204148         0.882241        -0.983393
 C         3.449819         0.498371        -0.231888
 C         2.606144         0.316140         1.008873
 O         2.678602         1.214432         2.073091
 H         4.050617        -2.669894         1.386215
 H         4.992800        -2.221927        -0.061958
 H         5.347851        -1.363662         1.302668
 H        -0.700525         0.241588        -0.527760
 H        -0.339522        -1.211234         0.170232
 H        -0.315088         0.096157         1.254975
 H         2.190270         0.811339        -2.120528
 H         1.860768         1.869483        -0.723689
 H         4.396491         1.078019        -0.186652
 H         1.954441         1.123527         2.732163
