19
Iteration:  2430charge 0 multiplicity 1
 C         4.392560        -1.648368         0.968761
 C         3.184778        -0.864501         0.585093
 O         1.901427        -1.537882         0.385925
 C         1.397036        -0.068717         0.067009
 C         0.045540         0.234489         0.652473
 C         2.034245         0.194524        -1.270337
 C         3.445009         0.260915        -0.649906
 C         2.763608         0.518081         0.715254
 O         2.996775         1.491621         1.652578
 H         4.372108        -2.055718         2.031119
 H         4.395434        -2.539308         0.276963
 H         5.288094        -1.040493         0.735871
 H        -0.007984         0.126009         1.765881
 H        -0.339141         1.208006         0.314965
 H        -0.857207        -0.419993         0.432626
 H         1.796756        -0.614680        -1.971888
 H         1.887222         1.152749        -1.818138
 H         4.326128         0.610113        -1.190033
 H         2.385129         1.241083         2.411062
