19
Iteration:  3181charge 0 multiplicity 1
 C         4.385360        -1.627297         1.267399
 C         3.388770        -0.844123         0.407830
 O         1.889931        -1.436911         0.380926
 C         1.429998        -0.158165         0.043911
 C         0.075302         0.306919         0.611224
 C         1.980534         0.125199        -1.389019
 C         3.333148         0.253976        -0.761850
 C         2.760950         0.467624         0.642392
 O         2.883254         1.382495         1.804863
 H         4.899355        -0.969106         1.968005
 H         3.670708        -2.089056         1.986942
 H         4.945733        -2.380636         0.755354
 H        -0.145083        -0.288126         1.533121
 H         0.192668         1.407839         0.943834
 H        -0.788946         0.305441        -0.087309
 H         1.829603        -0.672992        -2.145906
 H         1.581384         1.092520        -1.762646
 H         4.314171         0.703149        -1.101736
 H         3.643619         1.907108         1.497677
