19
Iteration:  4927charge 0 multiplicity 1
 C         4.618168        -1.481764         0.841077
 C         3.217778        -0.864688         0.427523
 O         1.927117        -1.425255         0.161998
 C         1.423502        -0.032869         0.104402
 C        -0.033058         0.165880         0.173784
 C         2.127097         0.491152        -1.195780
 C         3.352821         0.364012        -0.499534
 C         2.658711         0.401409         0.909898
 O         2.829606         1.029554         2.179666
 H         5.119337        -1.479236        -0.096448
 H         5.113166        -0.820465         1.605118
 H         4.443691        -2.428366         1.286975
 H        -0.618327        -0.725648        -0.065098
 H        -0.430548         0.385611         1.132516
 H        -0.284891         1.082444        -0.452197
 H         2.149539        -0.212447        -2.118838
 H         1.636248         1.470165        -1.534752
 H         4.404432         0.588670        -0.804529
 H         2.741292         0.388291         2.881470
