19
Iteration:   703charge 0 multiplicity 1
 C         4.377336        -1.771454         0.755273
 C         3.290698        -0.914219         0.442176
 O         2.037134        -1.368166        -0.161162
 C         1.438755        -0.026394         0.057899
 C        -0.017808        -0.259453         0.234462
 C         2.261871         0.842456        -1.171642
 C         3.447922         0.598528        -0.205143
 C         2.668403         0.336805         1.046174
 O         2.702188         1.169755         2.167969
 H         4.107880        -2.537738         1.442481
 H         4.773354        -2.084838        -0.139601
 H         4.938637        -1.057885         1.329989
 H        -0.567002         0.403198        -0.379261
 H        -0.114833        -1.312511         0.080249
 H        -0.301615         0.020597         1.221734
 H         2.223703         0.421175        -2.095930
 H         2.065802         1.880580        -1.151165
 H         4.444123         0.993512        -0.280539
 H         1.762790         1.213770         2.381003
