19
Iteration:   615charge 0 multiplicity 1
 C         4.367741        -1.603112         0.742537
 C         3.218401        -0.807987         0.472725
 O         2.045848        -1.396791         0.004527
 C         1.496327         0.034467        -0.093683
 C        -0.013368        -0.027230         0.258219
 C         2.332134         0.692191        -1.289952
 C         3.517711         0.627219        -0.325322
 C         2.595032         0.421561         1.002453
 O         2.555860         0.734440         2.329541
 H         4.263773        -2.250580         1.629861
 H         4.676715        -2.059324        -0.151296
 H         5.346823        -1.136116         1.040862
 H        -0.704644        -0.706327        -0.321214
 H        -0.016574        -0.359301         1.314007
 H        -0.583736         0.979348         0.236426
 H         2.398879         0.163659        -2.230539
 H         1.992290         1.800672        -1.349043
 H         4.568112         0.960518        -0.585745
 H         3.017918         1.586051         2.304641
