19
Iteration:  4203
 C         4.488627        -1.633380         0.977027
 C         3.231906        -0.881307         0.495505
 O         1.921342        -1.395284         0.190596
 C         1.404632        -0.102396        -0.010117
 C         0.048912         0.015556         0.381993
 C         2.115715         0.406593        -1.300503
 C         3.364486         0.405865        -0.438516
 C         2.630733         0.516568         0.814032
 O         2.857210         1.212871         2.024770
 H         4.946043        -2.114865         0.040655
 H         5.262787        -0.966178         1.389748
 H         4.172048        -2.455358         1.692240
 H        -0.439115        -0.918248         0.639688
 H        -0.096826         0.658568         1.269598
 H        -0.430119         0.375417        -0.462534
 H         2.117558        -0.180319        -2.239317
 H         1.694567         1.476239        -1.443727
 H         4.321350         0.690351        -0.780832
 H         3.332534         2.058930         1.850126
