19
Iteration:   640charge 0 multiplicity 1
 C         4.407793        -1.765319         0.765953
 C         3.333060        -0.791320         0.373373
 O         2.080031        -1.402199        -0.130261
 C         1.520563        -0.036910         0.033007
 C         0.021100        -0.035138         0.204119
 C         2.161759         0.693833        -1.150246
 C         3.472660         0.606098        -0.259782
 C         2.643039         0.429117         1.023068
 O         2.488191         0.992026         2.274889
 H         4.071046        -2.458981         1.558238
 H         4.898715        -2.297247        -0.094227
 H         5.292851        -1.274132         1.185811
 H        -0.562793        -0.092280        -0.730417
 H        -0.307889        -0.887643         0.830647
 H        -0.329551         0.882745         0.797789
 H         2.081806         0.014475        -2.048656
 H         1.957443         1.819722        -1.387999
 H         4.451456         1.020660        -0.456141
 H         3.389920         1.069481         2.588462
