19
Iteration:  2792
 C         4.312763        -1.584590         1.190832
 C         3.336424        -0.834986         0.396967
 O         2.059877        -1.523852         0.292896
 C         1.485143        -0.061891         0.134535
 C         0.061032         0.133690         0.631882
 C         1.808370         0.294718        -1.276623
 C         3.353282         0.108668        -0.773427
 C         2.724163         0.485706         0.764867
 O         2.945847         1.520468         1.637944
 H         5.382119        -1.593589         0.943203
 H         4.272031        -1.078742         2.175136
 H         4.019760        -2.608425         1.480645
 H         0.184348        -0.441503         1.573178
 H         0.013217         1.232204         0.936187
 H        -0.615866        -0.337614        -0.147140
 H         1.465054        -0.408319        -2.079971
 H         1.491084         1.310491        -1.512333
 H         4.122138         0.721290        -1.129181
 H         3.369877         1.205538         2.449504
