19
Iteration:  2044charge 0 multiplicity 1
 C         4.426507        -1.703809         0.890730
 C         3.236204        -0.875883         0.493668
 O         1.956513        -1.460026         0.296063
 C         1.443170        -0.070778         0.148211
 C        -0.030410         0.202538         0.545143
 C         2.054141         0.251650        -1.256448
 C         3.440775         0.279026        -0.597143
 C         2.746741         0.464151         0.803943
 O         2.855422         1.412327         1.871173
 H         5.008186        -1.731530        -0.035976
 H         5.037225        -1.185410         1.711728
 H         4.030227        -2.734070         1.090801
 H        -0.345901        -0.342812         1.391128
 H        -0.033399         1.285876         0.709719
 H        -0.645135        -0.021959        -0.301959
 H         1.747855        -0.663001        -1.837196
 H         1.797899         1.191045        -1.762180
 H         4.426092         0.566531        -0.989578
 H         2.945171         2.273607         1.448079
