19
Iteration:   376charge 0 multiplicity 1
 C         4.167623        -1.898790         0.876140
 C         3.380041        -0.685466         0.345603
 O         2.203833        -1.305859        -0.184763
 C         1.481034         0.019325         0.072817
 C        -0.021022        -0.081657         0.093336
 C         2.113816         0.828320        -1.120575
 C         3.431385         0.655266        -0.318017
 C         2.712873         0.406377         1.011935
 O         2.768658         0.782706         2.365908
 H         3.434720        -2.614988         1.192918
 H         4.449143        -2.468292        -0.012286
 H         5.097706        -1.627349         1.521342
 H        -0.550462         0.716885        -0.457831
 H        -0.358128        -0.821123        -0.606101
 H        -0.386238        -0.092826         1.170684
 H         2.147193         0.351276        -2.038563
 H         1.792241         1.915109        -1.068815
 H         4.348929         1.116038        -0.327614
 H         2.056772         1.411270         2.626801
