19
Iteration:  3034
 C         4.415581        -1.686325         0.989873
 C         3.169862        -0.886205         0.619203
 O         1.835616        -1.463283         0.456366
 C         1.413272        -0.074046         0.049765
 C         0.038270         0.156950         0.552564
 C         2.067046         0.123364        -1.306630
 C         3.457305         0.150550        -0.621133
 C         2.751903         0.556673         0.704991
 O         2.924257         1.665626         1.653557
 H         5.321860        -0.995354         0.821262
 H         4.481539        -2.269965         1.917569
 H         4.582104        -2.440353         0.145826
 H         0.065168        -0.039281         1.596375
 H        -0.247127         1.181421         0.281453
 H        -0.709179        -0.492813         0.062833
 H         1.953500        -0.710619        -2.032056
 H         1.789240         1.174662        -1.548376
 H         4.431758         0.471415        -0.941156
 H         3.172108         1.244082         2.500919
