19
Iteration:  4546charge 0 multiplicity 1
 C         4.436639        -1.534482         1.062346
 C         3.241253        -0.813550         0.447689
 O         2.025328        -1.493824         0.119357
 C         1.476353        -0.135660        -0.053505
 C         0.088227         0.105197         0.415698
 C         2.044699         0.531011        -1.291082
 C         3.335297         0.394060        -0.519508
 C         2.691158         0.431028         0.803852
 O         2.819756         1.137472         2.013643
 H         4.355700        -2.573549         0.787061
 H         5.489162        -1.063750         0.986918
 H         4.347377        -1.537546         2.134697
 H        -0.599556        -0.117651        -0.458381
 H        -0.124493        -0.626989         1.180740
 H        -0.221508         1.138373         0.905512
 H         1.997430         0.143408        -2.340802
 H         1.696875         1.520475        -1.138331
 H         4.287763         0.942600        -0.748881
 H         2.255021         0.579891         2.597194
