19
Iteration:  1196
 C         4.289390        -1.647522         1.058628
 C         3.208453        -0.742033         0.416046
 O         2.069872        -1.359584        -0.175882
 C         1.450159         0.001665        -0.102046
 C        -0.065648        -0.277984         0.279390
 C         2.176079         0.722812        -1.227123
 C         3.410407         0.600971        -0.352851
 C         2.595481         0.491722         0.996479
 O         2.897603         0.915007         2.210147
 H         4.305601        -1.731774         2.122244
 H         4.464692        -2.620169         0.657624
 H         5.314226        -1.305079         0.903989
 H        -0.267255        -0.071545         1.352853
 H        -0.844878         0.270318        -0.266346
 H        -0.091369        -1.364746         0.126863
 H         2.222498        -0.021453        -2.028263
 H         1.857053         1.704267        -1.514343
 H         4.443054         1.020713        -0.386599
 H         3.108128         1.875273         2.085595
