19
Iteration:   360
 C         4.238507        -1.896696         0.911789
 C         3.325921        -0.797285         0.343436
 O         2.107946        -1.281431        -0.269012
 C         1.488952        -0.078566         0.024729
 C        -0.068398        -0.079881         0.047266
 C         2.130535         0.845966        -0.978929
 C         3.485946         0.716906        -0.278194
 C         2.669816         0.384215         1.044966
 O         2.826824         0.823682         2.340279
 H         3.475210        -2.490254         1.535455
 H         4.744227        -2.514229         0.113428
 H         4.882137        -1.426956         1.587624
 H        -0.337531         0.933408        -0.274720
 H        -0.190297        -0.847709        -0.812287
 H        -0.384394        -0.385416         1.021975
 H         1.785586         0.391685        -2.030363
 H         1.816349         1.872349        -0.938689
 H         4.387807         1.362558        -0.698520
 H         2.385673         1.724508         2.407751
