19
Iteration:   308
 C         4.461164        -1.647310         0.783352
 C         3.161929        -0.908252         0.437298
 O         1.977846        -1.330071        -0.286100
 C         1.449527         0.014239        -0.043563
 C        -0.106540        -0.036281         0.108699
 C         2.299198         0.793811        -1.095829
 C         3.510384         0.498520        -0.158826
 C         2.641689         0.333065         1.065827
 O         2.674920         0.861766         2.341908
 H         4.264353        -2.420108         1.534937
 H         4.932064        -2.129497        -0.074570
 H         4.998850        -0.831093         1.172460
 H        -0.357646         0.809619         0.734988
 H        -0.457985         0.125510        -0.851673
 H        -0.216451        -0.925621         0.615380
 H         2.379278         0.421338        -2.025431
 H         1.860484         1.843469        -1.092586
 H         4.603067         0.848404        -0.142053
 H         3.294498         1.603941         2.501358
