19
Iteration:  3434charge 0 multiplicity 1
 C         4.352635        -1.875347         0.963934
 C         3.246461        -0.846981         0.470527
 O         1.973463        -1.466126         0.144902
 C         1.443542        -0.113016         0.096335
 C        -0.064126         0.008610         0.410867
 C         2.077248         0.477200        -1.159310
 C         3.425081         0.287815        -0.449855
 C         2.755528         0.458800         0.882178
 O         2.906866         1.567810         1.838812
 H         3.905138        -2.878792         0.850656
 H         5.335722        -1.760322         0.542674
 H         4.429248        -1.740620         2.075018
 H        -0.319826         0.917882        -0.003389
 H        -0.469794        -0.811488        -0.158495
 H        -0.342618        -0.147875         1.464872
 H         2.063376        -0.171098        -2.060996
 H         1.749644         1.499515        -1.218262
 H         4.410988         0.775983        -0.695300
 H         3.083048         2.369055         1.317687
