19
Iteration:  2806
 C         4.387363        -1.628235         1.273189
 C         3.285939        -0.877529         0.459747
 O         1.944236        -1.461928         0.223124
 C         1.459625        -0.082389         0.119830
 C         0.140729         0.076900         0.767593
 C         1.929856         0.276155        -1.321402
 C         3.301509         0.213920        -0.708741
 C         2.765057         0.477638         0.679575
 O         2.876196         1.532611         1.591694
 H         5.308452        -1.587635         0.740641
 H         4.518421        -1.271485         2.230858
 H         4.096751        -2.640253         1.177335
 H         0.028244        -0.323501         1.771736
 H        -0.318399         1.090211         0.751769
 H        -0.591619        -0.463668         0.123250
 H         1.572226        -0.310274        -2.138098
 H         1.818643         1.336379        -1.586139
 H         4.280741         0.662249        -1.062294
 H         3.680550         1.344773         2.129577
