19
Iteration:  1028
 C         4.422072        -1.612181         1.065343
 C         3.264123        -0.857389         0.418196
 O         2.096068        -1.457171        -0.152249
 C         1.432405        -0.097354        -0.050620
 C        -0.049626        -0.169825         0.229279
 C         2.117303         0.789908        -1.077979
 C         3.359152         0.497041        -0.306139
 C         2.588738         0.299902         0.970680
 O         2.821388         1.121780         2.073742
 H         4.286703        -2.072891         2.013497
 H         4.759542        -2.423752         0.485393
 H         5.328462        -1.000173         1.159394
 H        -0.480447        -1.028409         0.767681
 H        -0.157495         0.822469         0.736806
 H        -0.503591        -0.111777        -0.777210
 H         1.969238         0.546495        -2.129405
 H         1.842923         1.807504        -0.943294
 H         4.356489         1.033740        -0.383463
 H         3.071600         2.018657         1.766546
