19
Iteration:  4293
 C         4.353190        -1.646623         0.989465
 C         3.297821        -0.792104         0.460060
 O         1.977817        -1.447615         0.099525
 C         1.482387        -0.071773         0.050238
 C        -0.024553        -0.059019         0.467336
 C         2.116520         0.452421        -1.234859
 C         3.518052         0.356744        -0.510198
 C         2.615029         0.467602         0.868819
 O         2.828830         1.297164         1.953874
 H         3.878223        -2.685560         0.746136
 H         5.350469        -1.666097         0.512859
 H         4.499920        -1.540353         2.090438
 H        -0.554257        -0.618010        -0.253833
 H        -0.112307        -0.656136         1.362619
 H        -0.502442         0.932736         0.591259
 H         1.914434        -0.081805        -2.214519
 H         1.821759         1.550503        -1.396983
 H         4.510204         0.898074        -0.630258
 H         2.753826         2.225161         1.675988
