19
Iteration:  3819
 C         4.226351        -1.755635         1.068407
 C         3.359749        -0.874786         0.374258
 O         2.013153        -1.384900        -0.120091
 C         1.422772        -0.073029         0.010063
 C        -0.052971        -0.207004         0.431181
 C         2.155968         0.776135        -1.187872
 C         3.449638         0.501971        -0.432658
 C         2.724807         0.407276         0.889012
 O         2.855788         1.193059         2.068274
 H         3.569461        -2.364639         1.649995
 H         4.955404        -2.456630         0.576568
 H         4.864601        -1.340432         1.834415
 H        -0.875552         0.344132        -0.232822
 H        -0.510565        -1.223665         0.483987
 H        -0.170322         0.130707         1.503424
 H         1.955617         0.347158        -2.190703
 H         1.953433         1.856057        -1.208061
 H         4.407212         0.847682        -0.826520
 H         3.281258         2.068634         1.830363
