19
Iteration:  3166
 C         4.218064        -1.613758         1.328998
 C         3.328383        -0.834786         0.399956
 O         1.975072        -1.493532         0.307244
 C         1.455399        -0.086327         0.149235
 C         0.064771         0.226979         0.668271
 C         1.976123         0.213891        -1.318596
 C         3.437331         0.265789        -0.742398
 C         2.748826         0.544659         0.610381
 O         2.905593         1.310446         1.674837
 H         5.146913        -0.997459         1.670555
 H         3.681650        -1.958406         2.270818
 H         4.683338        -2.553160         0.830930
 H        -0.083354        -0.097148         1.721051
 H         0.043368         1.286715         0.734395
 H        -0.633607        -0.210529        -0.020596
 H         1.697850        -0.528349        -2.096956
 H         1.664232         1.205124        -1.791418
 H         4.343433         0.499673        -1.375559
 H         3.384809         2.120463         1.613126
