19
Iteration:  4380charge 0 multiplicity 1
 C         4.474054        -1.611122         0.949889
 C         3.243164        -0.833359         0.483750
 O         2.013848        -1.456415         0.146246
 C         1.400412        -0.057644         0.098061
 C        -0.036996         0.086413         0.410875
 C         2.076472         0.336944        -1.294510
 C         3.407719         0.339777        -0.540550
 C         2.799489         0.533170         0.809921
 O         2.745184         1.313076         1.993491
 H         4.941077        -2.386694         0.257217
 H         5.069312        -0.796110         1.278820
 H         4.257982        -2.167207         1.867138
 H        -0.639774         0.065212        -0.477328
 H        -0.284041        -0.730185         1.077881
 H        -0.297203         0.934701         1.124074
 H         1.924536        -0.433559        -2.058600
 H         1.823471         1.403066        -1.592393
 H         4.410268         0.697218        -0.950351
 H         3.040080         0.623298         2.653330
