19
Iteration:  1607charge 0 multiplicity 1
 C         4.484741        -1.527095         0.929041
 C         3.227391        -0.900827         0.455986
 O         1.947942        -1.486059         0.202707
 C         1.431459        -0.032025         0.100401
 C        -0.186761        -0.065199         0.225424
 C         2.171515         0.542292        -1.180700
 C         3.466861         0.355890        -0.455131
 C         2.685732         0.434146         0.885928
 O         2.850063         1.295077         1.953645
 H         4.389085        -1.954274         1.983395
 H         4.760448        -2.350211         0.293104
 H         5.272802        -0.770069         0.914009
 H        -0.404698        -1.124506         0.442402
 H        -0.407296         0.544233         1.095322
 H        -0.702807         0.319788        -0.657013
 H         1.926924        -0.052439        -2.069819
 H         1.814676         1.567103        -1.318406
 H         4.425347         0.695457        -0.800945
 H         3.546129         0.935953         2.515530
