19
Iteration:   243
 C         4.406795        -1.818849         0.687299
 C         3.288995        -0.855723         0.432744
 O         2.072184        -1.383322        -0.155914
 C         1.574302         0.007973        -0.035466
 C         0.057536         0.068577         0.296552
 C         2.311758         0.820525        -1.133321
 C         3.509696         0.599274        -0.258292
 C         2.673999         0.313181         1.011398
 O         2.426043         0.909133         2.306492
 H         3.999279        -2.603381         1.363233
 H         4.646473        -2.327388        -0.245746
 H         5.215306        -1.428059         1.252316
 H        -0.223533         0.928480         0.939503
 H        -0.571376         0.083325        -0.568503
 H        -0.180565        -0.813132         0.855911
 H         2.325955         0.282120        -2.102379
 H         1.716466         1.875893        -1.385052
 H         4.510159         1.190467        -0.353155
 H         1.480673         1.212362         2.256848
