19
Iteration:  4580charge 0 multiplicity 1
 C         4.554700        -1.508452         0.830145
 C         3.247682        -0.908581         0.445708
 O         1.964944        -1.478836         0.158880
 C         1.438717        -0.044251         0.120906
 C        -0.134246         0.149776         0.257067
 C         2.137934         0.328549        -1.212973
 C         3.361674         0.420967        -0.427931
 C         2.738175         0.447544         0.941639
 O         2.839067         1.199972         2.057036
 H         4.957723        -2.192861         0.117148
 H         5.399291        -0.692453         0.837945
 H         4.356424        -1.971743         1.799977
 H        -0.492775         0.108927        -0.841000
 H        -0.748446        -0.619513         0.721015
 H        -0.454162         1.243726         0.538872
 H         2.187978        -0.348054        -2.140020
 H         1.737805         1.234797        -1.609665
 H         4.435880         0.834040        -0.621793
 H         2.386522         0.675284         2.725709
