19
Iteration:   895
 C         4.524394        -1.683222         0.723752
 C         3.205283        -0.896944         0.490627
 O         2.026362        -1.504335        -0.005834
 C         1.556062        -0.070164         0.014135
 C        -0.078638        -0.114789         0.269310
 C         2.249323         0.618072        -1.184227
 C         3.487691         0.570862        -0.210334
 C         2.628823         0.405648         0.989110
 O         2.520457         1.233426         2.076188
 H         4.390857        -2.612423         1.194091
 H         5.114019        -1.741620        -0.235441
 H         5.106780        -0.967471         1.326622
 H        -0.406764        -0.953725         0.995838
 H        -0.346613         0.820234         0.885049
 H        -0.778006        -0.263315        -0.603415
 H         2.188058         0.142639        -2.118276
 H         2.074096         1.691142        -1.227628
 H         4.431552         0.978396        -0.212784
 H         3.354287         1.720406         2.192500
