19
Iteration:   876charge 0 multiplicity 1
 C         4.443113        -1.828659         0.754741
 C         3.338173        -0.770148         0.450024
 O         2.125437        -1.393471         0.034498
 C         1.507935        -0.109119         0.036748
 C         0.030321        -0.160383         0.240552
 C         2.142288         0.647592        -1.143921
 C         3.415173         0.587119        -0.287686
 C         2.642997         0.422846         0.983151
 O         2.482706         1.242195         2.112729
 H         3.751996        -2.739957         1.052183
 H         5.011083        -2.117157        -0.148781
 H         5.239846        -1.613728         1.556312
 H        -0.243205        -0.765116         1.146832
 H        -0.356303         0.883454         0.412722
 H        -0.389349        -0.586504        -0.690607
 H         2.360486         0.099637        -2.179376
 H         1.663533         1.624759        -1.266566
 H         4.365220         1.078554        -0.600260
 H         3.382338         1.530546         2.394108
