19
Iteration:  2496
 C         4.266120        -1.875793         1.076268
 C         3.341780        -0.863036         0.501659
 O         2.004505        -1.425549         0.396416
 C         1.442093        -0.139601         0.162212
 C         0.026985         0.022549         0.611623
 C         1.903430         0.362950        -1.202699
 C         3.307891         0.280819        -0.636096
 C         2.771936         0.476647         0.806201
 O         3.053553         1.679659         1.424200
 H         3.563767        -2.671296         1.473393
 H         4.953179        -2.354922         0.387243
 H         4.939163        -1.579426         1.913138
 H        -0.124002        -0.233833         1.677125
 H        -0.059413         1.052789         0.261836
 H        -0.616853        -0.663389        -0.034605
 H         1.614298        -0.221135        -2.094325
 H         1.642371         1.419018        -1.384715
 H         4.132817         0.797965        -1.109560
 H         3.077256         1.666407         2.368693
