19
Iteration:  1226charge 0 multiplicity 1
 C         4.320488        -1.698913         0.887341
 C         3.295700        -0.669009         0.400368
 O         2.075480        -1.376367         0.044632
 C         1.465681        -0.113787        -0.008442
 C        -0.077932        -0.193246         0.164841
 C         2.144216         0.626314        -1.224427
 C         3.441743         0.654491        -0.430335
 C         2.687052         0.550504         0.991046
 O         2.846722         0.941085         2.289497
 H         4.238601        -1.913532         2.034968
 H         4.040404        -2.616583         0.440241
 H         5.349121        -1.382235         0.654540
 H        -0.394424        -0.263649         1.230226
 H        -0.687311         0.618713        -0.338724
 H        -0.436405        -1.074076        -0.448377
 H         2.192425        -0.069000        -2.125451
 H         1.704825         1.541538        -1.514789
 H         4.465002         1.029235        -0.642362
 H         2.224462         1.657742         2.436886
