19
Iteration:  3226charge 0 multiplicity 1
 C         4.597971        -1.646965         0.934225
 C         3.209256        -0.933021         0.555359
 O         1.812723        -1.447610         0.482919
 C         1.359401        -0.072375         0.119914
 C        -0.047372         0.275004         0.396122
 C         2.075914         0.149291        -1.282114
 C         3.399325         0.075259        -0.494917
 C         2.756360         0.491524         0.829774
 O         2.922617         1.522200         1.675685
 H         5.080406        -1.096895         1.760598
 H         4.429288        -2.664420         1.388997
 H         5.082479        -1.714756        -0.032644
 H        -0.524447        -0.489519         1.009082
 H        -0.113386         1.243063         1.037417
 H        -0.657801         0.517981        -0.556732
 H         1.891793        -0.513446        -2.170514
 H         1.937665         1.186412        -1.625383
 H         4.298115         0.423215        -0.912589
 H         3.358044         2.286159         1.302770
