19
Iteration:   881charge 0 multiplicity 1
 C         4.450165        -1.768817         0.740728
 C         3.359090        -0.818211         0.479249
 O         2.068183        -1.432815         0.027985
 C         1.417531        -0.137379         0.019647
 C         0.031411        -0.135749         0.259349
 C         2.211580         0.672901        -1.133878
 C         3.429983         0.592589        -0.286231
 C         2.662168         0.398173         0.983332
 O         2.492350         1.252195         2.095499
 H         4.006855        -2.696500         1.066322
 H         4.993223        -2.020663        -0.172215
 H         5.146765        -1.508048         1.492817
 H        -0.098253        -0.868115         1.039575
 H        -0.378139         0.827474         0.469338
 H        -0.397507        -0.435275        -0.699820
 H         2.312267         0.082491        -2.024027
 H         1.682718         1.613894        -1.389934
 H         4.409280         1.113385        -0.431652
 H         3.364541         1.581724         2.362371
