19
Iteration:  3462charge 0 multiplicity 1
 C         4.285691        -1.954251         1.080097
 C         3.294360        -0.900818         0.478964
 O         2.005921        -1.435861         0.170894
 C         1.434202        -0.090282         0.038280
 C        -0.061219        -0.137507         0.384653
 C         2.003956         0.686339        -1.126680
 C         3.395458         0.378713        -0.443963
 C         2.788311         0.410030         0.890439
 O         2.944754         1.543551         1.701318
 H         3.773741        -2.913385         1.229089
 H         5.233266        -2.206407         0.511578
 H         4.552811        -1.544915         2.033463
 H        -0.695971         0.345013        -0.495247
 H        -0.248221        -1.266295         0.425206
 H        -0.319206         0.308910         1.346158
 H         1.841076         0.489256        -2.185706
 H         1.718012         1.751866        -0.837073
 H         4.343568         0.941321        -0.497368
 H         3.668502         2.109413         1.316213
