19
Iteration:  1222charge 0 multiplicity 1
 C         4.262409        -1.652179         0.912779
 C         3.303760        -0.644907         0.386899
 O         2.063612        -1.347918         0.007325
 C         1.462046        -0.099930        -0.054423
 C        -0.082971        -0.225331         0.202095
 C         2.163194         0.587547        -1.244515
 C         3.438952         0.617631        -0.418479
 C         2.682759         0.551284         0.999608
 O         2.873172         0.935890         2.313402
 H         4.311066        -1.863742         1.969629
 H         4.106458        -2.624614         0.329494
 H         5.344555        -1.541906         0.657973
 H        -0.474158        -0.240640         1.209170
 H        -0.561930         0.587995        -0.329479
 H        -0.292062        -1.149860        -0.317082
 H         2.257250        -0.079472        -2.099425
 H         1.666034         1.589920        -1.455854
 H         4.409754         1.045158        -0.501866
 H         2.255948         1.701192         2.434765
