19
Iteration:  1681charge 0 multiplicity 1
 C         4.373092        -1.714769         0.993086
 C         3.266002        -0.822372         0.449342
 O         1.986711        -1.422644         0.147903
 C         1.454230         0.068232        -0.009314
 C         0.043680        -0.148107         0.596339
 C         2.106913         0.426484        -1.305867
 C         3.467034         0.329366        -0.542863
 C         2.702389         0.527467         0.822936
 O         2.747241         1.393923         1.958920
 H         4.191480        -2.778642         0.722859
 H         5.230207        -1.551175         0.461665
 H         4.627851        -1.525924         2.021212
 H        -0.384411        -0.491995        -0.321855
 H         0.344797        -0.867769         1.313761
 H        -0.335586         0.764987         0.978916
 H         2.097573        -0.245274        -2.148762
 H         1.963358         1.418081        -1.720854
 H         4.491054         0.523248        -0.787145
 H         1.833273         1.668626         2.154983
