19
Iteration:  4199
 C         4.459874        -1.653400         0.969464
 C         3.219728        -0.862927         0.493663
 O         1.937111        -1.387874         0.151784
 C         1.428646        -0.103588         0.008885
 C         0.058253         0.008897         0.411359
 C         2.124171         0.416361        -1.299828
 C         3.365694         0.395880        -0.459485
 C         2.610888         0.508612         0.835134
 O         2.854087         1.220939         1.997104
 H         5.009754        -2.072542         0.197277
 H         5.170488        -0.977766         1.583833
 H         4.208624        -2.375633         1.711266
 H        -0.370828        -1.017615         0.740921
 H        -0.116621         0.636849         1.309048
 H        -0.513399         0.430659        -0.509441
 H         1.981550        -0.128577        -2.252118
 H         1.690961         1.389068        -1.351480
 H         4.465196         0.690045        -0.638765
 H         3.365978         2.014856         1.746422
