19
Iteration:  2506charge 0 multiplicity 1
 C         4.379756        -1.856428         1.070903
 C         3.264426        -0.898772         0.412874
 O         1.967552        -1.467736         0.440369
 C         1.395495        -0.076778         0.147584
 C         0.010346         0.042527         0.495135
 C         1.915796         0.323481        -1.166410
 C         3.303927         0.240915        -0.672212
 C         2.795229         0.523309         0.847090
 O         3.130242         1.698254         1.481226
 H         3.749753        -2.662462         1.479404
 H         5.041378        -2.362008         0.380638
 H         4.857729        -1.364882         1.905286
 H        -0.107873        -0.232546         1.589594
 H        -0.441198         1.033777         0.581021
 H        -0.799500        -0.511581        -0.099946
 H         1.725053        -0.457317        -1.906898
 H         1.416761         1.268354        -1.413056
 H         4.098070         0.914124        -0.864639
 H         2.895189         1.559389         2.398953
