19
Iteration:  4888charge 0 multiplicity 1
 C         4.422101        -1.753556         0.909808
 C         3.294496        -0.839483         0.391883
 O         1.999799        -1.418735         0.057548
 C         1.454422        -0.116332         0.046977
 C        -0.026426         0.023129         0.369066
 C         2.174451         0.574108        -1.275587
 C         3.322442         0.526652        -0.337980
 C         2.682758         0.399921         0.940763
 O         2.813546         1.259797         2.033799
 H         5.171576        -1.767196         0.029579
 H         5.114805        -1.493961         1.703075
 H         4.044515        -2.858325         0.953856
 H        -0.612451        -0.761790        -0.161740
 H        -0.103151        -0.207638         1.512995
 H        -0.412151         0.935285        -0.006106
 H         2.196695        -0.007132        -2.187800
 H         1.882962         1.560094        -1.604151
 H         4.307906         1.001905        -0.546276
 H         2.270343         0.814682         2.735233
