19
Iteration:  2872
 C         4.415698        -1.774383         0.902464
 C         3.315577        -0.886851         0.534011
 O         2.034458        -1.480977         0.485050
 C         1.414617        -0.069472         0.212969
 C        -0.159594         0.197344         0.484877
 C         1.971774         0.126597        -1.255422
 C         3.378966         0.251206        -0.630002
 C         2.892553         0.551382         0.755178
 O         2.940733         1.598508         1.734616
 H         5.307830        -1.197076         0.994733
 H         4.246232        -2.365912         1.733459
 H         4.537955        -2.418221         0.049159
 H        -0.435668         0.437299         1.529198
 H        -0.562483         0.876543        -0.299285
 H        -0.716029        -0.763982         0.326045
 H         1.778516        -0.669356        -1.951778
 H         1.604212         1.108832        -1.597469
 H         4.276246         0.506453        -1.296558
 H         2.383099         2.301127         1.391131
