19
Iteration:  3688
 C         4.337362        -1.766868         0.854103
 C         3.272256        -0.839145         0.586028
 O         1.969045        -1.413754         0.006688
 C         1.353098        -0.062789         0.130448
 C        -0.068829        -0.078692         0.189170
 C         2.086894         0.553596        -1.188440
 C         3.337997         0.513408        -0.376421
 C         2.751427         0.426962         0.962653
 O         3.014948         1.243426         2.064576
 H         5.086637        -1.778865         0.047922
 H         4.858120        -1.560865         1.847773
 H         3.882885        -2.744731         1.038484
 H        -0.379843         0.857151         0.759277
 H        -0.447392        -0.115593        -0.839762
 H        -0.342225        -0.989971         0.790700
 H         2.022594        -0.089021        -2.104719
 H         1.854841         1.623414        -1.402382
 H         4.412780         0.875589        -0.472827
 H         3.231038         2.129520         1.741116
