19
Iteration:  2511
 C         4.392904        -1.831072         1.038126
 C         3.277905        -0.922101         0.424974
 O         1.942481        -1.470502         0.433105
 C         1.396109        -0.070547         0.205038
 C        -0.077994         0.072383         0.482804
 C         1.897806         0.261086        -1.216920
 C         3.321732         0.253917        -0.614909
 C         2.786715         0.524546         0.790316
 O         3.177001         1.703062         1.526088
 H         3.845702        -2.663386         1.584224
 H         5.148787        -2.171042         0.281085
 H         4.860108        -1.159119         1.851893
 H        -0.114220        -0.368026         1.462176
 H        -0.474555         1.086913         0.661992
 H        -0.652889        -0.534316        -0.172020
 H         1.600032        -0.481574        -1.994656
 H         1.560303         1.269807        -1.503586
 H         4.327977         0.749742        -0.856106
 H         2.821565         1.543104         2.442817
