19
Iteration:  1684
 C         4.351680        -1.703842         0.975447
 C         3.280057        -0.841077         0.462387
 O         2.004134        -1.404900         0.146899
 C         1.466277         0.058431        -0.001130
 C         0.079226        -0.129877         0.591917
 C         2.067297         0.431822        -1.319596
 C         3.457329         0.281255        -0.530355
 C         2.683248         0.506802         0.829154
 O         2.742699         1.405262         1.968972
 H         4.255213        -2.759575         0.724220
 H         5.295460        -1.360606         0.470776
 H         4.602771        -1.541804         2.013374
 H        -0.425322        -0.433344        -0.347777
 H         0.315560        -0.971198         1.236274
 H        -0.303328         0.823461         0.985452
 H         1.987612        -0.267850        -2.148940
 H         2.174685         1.461083        -1.700968
 H         4.509635         0.591828        -0.820329
 H         1.779214         1.658704         2.069469
