19
Iteration:   842
 C         4.348239        -1.825324         0.891175
 C         3.380531        -0.796836         0.387340
 O         2.157905        -1.365020        -0.054812
 C         1.528458        -0.045837         0.043331
 C        -0.003675        -0.240321         0.267838
 C         2.100056         0.693180        -1.140136
 C         3.473159         0.643216        -0.420218
 C         2.716148         0.488715         0.988122
 O         2.500319         1.138752         2.165406
 H         3.637094        -2.583640         1.395141
 H         4.722254        -2.358198        -0.056574
 H         5.126923        -1.565511         1.705042
 H        -0.341279        -0.132412         1.362266
 H        -0.643420         0.503374        -0.346299
 H        -0.371940        -1.245915        -0.048494
 H         2.223698         0.198719        -2.210672
 H         1.661605         1.706658        -1.172761
 H         4.332129         1.181453        -0.725735
 H         3.370588         1.360497         2.548668
