19
Iteration:  2475
 C         4.247794        -1.900256         1.062509
 C         3.225153        -0.865238         0.531673
 O         2.032264        -1.501903         0.282937
 C         1.446120        -0.045616         0.160330
 C         0.009829         0.043331         0.767744
 C         1.997521         0.339558        -1.242403
 C         3.432876         0.192653        -0.626883
 C         2.793212         0.614662         0.659424
 O         2.955847         1.733242         1.474586
 H         3.643605        -2.700549         1.636826
 H         4.786482        -2.443533         0.275386
 H         5.080298        -1.517426         1.744366
 H         0.139085        -0.145875         1.833659
 H        -0.579481         0.932482         0.487057
 H        -0.565277        -0.864158         0.469990
 H         1.718144        -0.276686        -2.113968
 H         1.610311         1.348492        -1.404348
 H         4.450897         0.516126        -0.783468
 H         2.849314         1.359642         2.394949
