19
Iteration:  1588
 C         4.480031        -1.530658         0.892675
 C         3.180604        -0.830686         0.527227
 O         1.914080        -1.409017         0.277014
 C         1.433027        -0.038413        -0.062369
 C        -0.005076        -0.096284         0.284516
 C         2.151195         0.507225        -1.345521
 C         3.364575         0.366558        -0.428936
 C         2.671771         0.519235         0.894052
 O         2.829536         1.174388         2.073997
 H         4.753491        -1.807767         1.891670
 H         4.423902        -2.628635         0.516082
 H         5.355562        -1.050751         0.412533
 H        -0.264958        -1.082960         0.638610
 H        -0.312814         0.748376         0.893836
 H        -0.552914        -0.125594        -0.689115
 H         2.175570        -0.073826        -2.296489
 H         1.831035         1.604351        -1.435449
 H         4.383512         0.724449        -0.636621
 H         3.748869         1.126235         2.387525
