19
Iteration:   602
 C         4.463398        -1.623467         0.803307
 C         3.237535        -0.784473         0.401517
 O         1.993265        -1.431341        -0.048401
 C         1.443834        -0.000021        -0.078194
 C         0.016416         0.041386         0.248077
 C         2.281395         0.752594        -1.203527
 C         3.468315         0.600795        -0.279314
 C         2.655186         0.372370         0.947483
 O         2.610796         0.752212         2.310305
 H         4.224422        -2.324100         1.610249
 H         4.698031        -2.285746         0.006416
 H         5.140726        -0.787840         0.985990
 H        -0.311737        -0.936745        -0.147804
 H        -0.104061         0.030040         1.357950
 H        -0.473077         0.923975        -0.154815
 H         2.295087         0.108747        -2.082559
 H         2.005134         1.715187        -1.576649
 H         4.521619         0.874596        -0.312122
 H         2.305215         1.663763         2.484413
