19
Iteration:  3689charge 0 multiplicity 1
 C         4.342996        -1.762541         0.841223
 C         3.265015        -0.830567         0.590306
 O         1.972925        -1.410560         0.008339
 C         1.347431        -0.069030         0.132661
 C        -0.067428        -0.068879         0.187180
 C         2.092033         0.542257        -1.185061
 C         3.338645         0.514185        -0.379533
 C         2.742926         0.421347         0.960143
 O         3.013423         1.239054         2.067256
 H         5.111254        -1.798180         0.057068
 H         4.889472        -1.543911         1.840716
 H         3.894848        -2.754955         1.065151
 H        -0.406278         0.871783         0.755279
 H        -0.441511        -0.122922        -0.835510
 H        -0.345047        -0.931079         0.793846
 H         2.021420        -0.108414        -2.084979
 H         1.873169         1.627096        -1.410325
 H         4.418554         0.872800        -0.462903
 H         3.228518         2.109526         1.745055
