19
Iteration:  4823
 C         4.319408        -1.853222         0.992222
 C         3.352112        -0.871921         0.422790
 O         2.024966        -1.436186        -0.058351
 C         1.424246        -0.023038        -0.014587
 C        -0.010344        -0.194885         0.389601
 C         2.134813         0.666279        -1.116166
 C         3.416755         0.538623        -0.288823
 C         2.701640         0.456785         0.913569
 O         2.792761         1.393531         1.875666
 H         4.365750        -2.666230         0.180869
 H         5.285736        -1.389100         0.891586
 H         4.059885        -2.535896         1.869681
 H        -0.805732        -0.163898        -0.393996
 H         0.115621        -1.257852         0.920444
 H        -0.298353         0.411077         1.240303
 H         2.161583         0.269968        -2.124121
 H         1.955675         1.762644        -1.065094
 H         4.424984         1.020479        -0.464918
 H         2.354930         1.060688         2.700891
