19
Iteration:  4549
 C         4.477737        -1.528639         1.044126
 C         3.225029        -0.813030         0.451056
 O         2.009098        -1.499589         0.145422
 C         1.485426        -0.108819        -0.068402
 C         0.067706         0.113944         0.393521
 C         2.050883         0.501880        -1.270754
 C         3.355995         0.397611        -0.535894
 C         2.658810         0.424906         0.827005
 O         2.828872         1.123881         2.019641
 H         4.416380        -2.529493         0.643159
 H         5.500300        -1.072473         1.022180
 H         4.399507        -1.458711         2.136043
 H        -0.666446        -0.044949        -0.418701
 H        -0.274572        -0.631933         1.131571
 H        -0.108770         1.071241         0.819416
 H         2.000857         0.145368        -2.364025
 H         1.673560         1.540086        -1.137039
 H         4.340801         0.945151        -0.779703
 H         2.220237         0.626082         2.639753
