19
Iteration:  3002charge 0 multiplicity 1
 C         4.329708        -1.655370         1.259187
 C         3.336915        -0.881568         0.445887
 O         1.942033        -1.514108         0.295145
 C         1.427645        -0.074845         0.132785
 C         0.113455         0.212990         0.752794
 C         1.950348         0.199841        -1.303230
 C         3.450474         0.201353        -0.668186
 C         2.697424         0.459954         0.636597
 O         2.954624         1.511858         1.523459
 H         4.935373        -0.966691         1.876700
 H         3.759685        -2.305442         1.871842
 H         4.932498        -2.265389         0.581753
 H        -0.082027        -0.212372         1.718055
 H         0.045325         1.266329         1.010247
 H        -0.701231        -0.025558         0.062721
 H         1.804802        -0.444747        -2.150056
 H         1.647194         1.210675        -1.632683
 H         4.331074         0.774227        -0.901772
 H         2.083680         1.893192         1.808067
