19
Iteration:  3778charge 0 multiplicity 1
 C         4.328552        -1.766507         1.037092
 C         3.256333        -0.800544         0.336880
 O         2.039440        -1.440072        -0.066947
 C         1.482544        -0.069942        -0.044959
 C         0.049968         0.059195         0.565030
 C         2.163106         0.562217        -1.300948
 C         3.448043         0.587811        -0.554051
 C         2.692953         0.431211         0.946119
 O         2.703152         1.046561         2.144281
 H         3.894543        -2.750443         0.934559
 H         5.292258        -1.756178         0.458300
 H         4.619745        -1.559296         2.105044
 H        -0.581982         0.775593        -0.044254
 H        -0.526574        -0.843264         0.807258
 H         0.218544         0.445489         1.533363
 H         2.217853         0.081901        -2.276428
 H         1.922802         1.648564        -1.482514
 H         4.455010         0.726578        -0.733282
 H         2.313060         1.918276         2.061230
