19
Iteration:  3811charge 0 multiplicity 1
 C         4.231414        -1.807020         1.122552
 C         3.310145        -0.803476         0.365668
 O         2.041359        -1.377610        -0.122871
 C         1.437337        -0.032464         0.042282
 C         0.000712        -0.178332         0.470788
 C         2.139251         0.708945        -1.202017
 C         3.458285         0.528127        -0.450069
 C         2.695781         0.402494         0.847796
 O         2.816853         1.134513         2.043590
 H         3.538491        -2.538297         1.507975
 H         4.893678        -2.263561         0.374750
 H         4.696369        -1.211906         1.926818
 H        -0.681798         0.474015        -0.117290
 H        -0.161301        -1.268572         0.480928
 H         0.028816         0.266848         1.427827
 H         1.866021         0.306776        -2.168468
 H         1.990575         1.819620        -1.143794
 H         4.376331         1.011915        -0.536042
 H         3.213211         1.909313         1.572329
