19
Iteration:  1072
 C         4.514514        -1.771605         0.649764
 C         3.344105        -0.780695         0.504540
 O         2.035997        -1.395672         0.146270
 C         1.511346        -0.090459         0.084353
 C        -0.027550        -0.029799         0.124431
 C         2.179760         0.579078        -1.227246
 C         3.419723         0.532707        -0.331210
 C         2.620305         0.428410         1.029681
 O         2.575796         1.131858         2.226303
 H         4.069391        -2.697627         1.013288
 H         4.973959        -2.009170        -0.264113
 H         5.261813        -1.424667         1.366941
 H        -0.342672        -0.488953         1.083216
 H        -0.459855         0.983772        -0.072106
 H        -0.482104        -0.720191        -0.619328
 H         2.298713        -0.049387        -2.118915
 H         1.904087         1.537044        -1.582404
 H         4.450883         1.006210        -0.444976
 H         2.550594         2.109746         2.112795
