19
Iteration:   456charge 0 multiplicity 1
 C         4.560525        -1.776404         0.719830
 C         3.344418        -0.948706         0.384988
 O         2.066084        -1.491209        -0.231117
 C         1.492924        -0.118311         0.006958
 C         0.000248         0.210797         0.225118
 C         2.136360         0.828720        -0.984512
 C         3.434568         0.621722        -0.194473
 C         2.669149         0.316647         1.013121
 O         2.421999         0.915027         2.207362
 H         4.193325        -2.329703         1.538953
 H         4.923813        -2.245949        -0.191618
 H         5.332226        -1.175265         1.080227
 H         0.227855         1.217278         0.492549
 H        -0.495049         0.091199        -0.711086
 H        -0.447196        -0.322542         1.059650
 H         2.000595         0.603101        -2.067154
 H         1.841362         1.800181        -0.864058
 H         4.470281         1.113861        -0.212108
 H         3.235813         1.273391         2.627726
