19
Iteration:   551charge 0 multiplicity 1
 C         4.383127        -1.806583         0.868515
 C         3.319458        -0.863656         0.374390
 O         2.126530        -1.458988        -0.185743
 C         1.425231        -0.084879        -0.017120
 C        -0.027400        -0.023300         0.165653
 C         2.171676         0.871456        -1.041724
 C         3.417438         0.647754        -0.248100
 C         2.622722         0.317976         1.000251
 O         2.706358         1.016646         2.173753
 H         3.850714        -2.393088         1.674839
 H         4.819571        -2.355431        -0.030618
 H         5.181903        -1.095659         1.352064
 H        -0.400543        -0.836969         0.847530
 H        -0.239699         0.992951         0.527956
 H        -0.515672         0.012104        -0.877780
 H         1.982646         0.954822        -2.117310
 H         1.833922         1.974169        -0.643317
 H         4.422997         1.145729        -0.261910
 H         2.757903         0.404420         2.919077
