19
Iteration:  4063charge 0 multiplicity 1
 C         4.521242        -1.610316         0.798743
 C         3.261172        -0.868304         0.448709
 O         1.975105        -1.493431         0.375113
 C         1.410144        -0.167591         0.082453
 C        -0.137447         0.167347         0.067439
 C         2.060109         0.441787        -1.196065
 C         3.343807         0.401245        -0.462589
 C         2.710541         0.422599         0.955211
 O         2.939733         1.183207         2.101767
 H         4.947684        -2.466256         0.195896
 H         5.193927        -0.810408         0.611027
 H         4.543128        -1.807504         1.903681
 H        -0.238163         0.470988         1.138240
 H        -0.451044         1.039081        -0.592946
 H        -0.825771        -0.731355        -0.061723
 H         2.022021        -0.066938        -2.134463
 H         1.844401         1.510360        -1.387222
 H         4.272217         0.726860        -1.001918
 H         2.784754         2.082251         1.821293
