19
Iteration:  1010
 C         4.358345        -1.583686         1.101841
 C         3.270251        -0.842591         0.372668
 O         2.017983        -1.373010        -0.150921
 C         1.382042        -0.064881        -0.046187
 C        -0.075965        -0.252542         0.295477
 C         2.194607         0.766127        -1.227134
 C         3.453918         0.524420        -0.324019
 C         2.629095         0.419460         0.897285
 O         2.853744         1.004787         2.160269
 H         3.992550        -1.642202         2.197600
 H         4.668172        -2.561624         0.734033
 H         5.213111        -0.908705         1.120143
 H        -0.008786        -1.261199         0.655410
 H        -0.388381         0.270732         1.151692
 H        -0.786308        -0.279964        -0.515161
 H         2.168085         0.317219        -2.254166
 H         1.893379         1.823444        -1.194750
 H         4.408515         1.050166        -0.389239
 H         3.108011         1.920459         1.926778
