19
Iteration:  3330charge 0 multiplicity 1
 C         4.330861        -1.482762         1.205556
 C         3.250532        -0.951785         0.418383
 O         1.948317        -1.547631         0.276610
 C         1.386357        -0.120284         0.030063
 C         0.009884         0.169618         0.499456
 C         2.062895         0.407327        -1.318948
 C         3.350919         0.208476        -0.548260
 C         2.690810         0.488331         0.760457
 O         3.043190         1.315371         1.782459
 H         5.280446        -1.414611         0.694166
 H         4.301392        -1.102904         2.235497
 H         4.052062        -2.533660         1.255716
 H        -0.036811         0.227205         1.629026
 H        -0.394101         1.066198         0.046737
 H        -0.511363        -0.777869         0.294271
 H         1.766564        -0.114408        -2.221330
 H         1.931380         1.492769        -1.511756
 H         4.369967         0.463974        -0.851355
 H         3.157021         2.211303         1.348878
