19
Iteration:  4100
 C         4.435876        -1.647757         0.880622
 C         3.237172        -0.861776         0.461245
 O         1.981409        -1.418340         0.182805
 C         1.389794         0.040495         0.050054
 C        -0.045282         0.010844         0.353423
 C         2.157190         0.356258        -1.290451
 C         3.362385         0.368764        -0.474257
 C         2.683209         0.469564         0.912562
 O         2.892314         1.251864         2.058992
 H         4.997221        -1.942119         0.041447
 H         5.020470        -1.065470         1.602690
 H         4.129967        -2.503146         1.446347
 H        -0.064255        -0.117980         1.440523
 H        -0.542556         0.963943         0.155927
 H        -0.657071        -0.775988        -0.200121
 H         2.022708        -0.433461        -2.063206
 H         1.880329         1.314294        -1.680855
 H         4.371221         0.643512        -0.726295
 H         2.982708         2.182025         1.832118
