19
Iteration:   387
 C         4.188810        -1.841376         0.787546
 C         3.318837        -0.772506         0.403912
 O         2.125878        -1.326035        -0.107813
 C         1.504009        -0.003885        -0.039251
 C        -0.029404        -0.082538         0.155980
 C         2.224443         0.864006        -1.192937
 C         3.475007         0.705007        -0.289638
 C         2.687935         0.415768         1.022358
 O         2.731937         0.746157         2.367241
 H         3.576434        -2.475152         1.420130
 H         4.545305        -2.230764        -0.158536
 H         5.126674        -1.647062         1.432246
 H        -0.417493         0.839456        -0.283973
 H        -0.277004        -1.072881        -0.189409
 H        -0.345761        -0.159300         1.243948
 H         2.105528         0.431882        -2.125384
 H         1.977283         1.949331        -1.350926
 H         4.342547         1.273324        -0.343079
 H         1.980751         1.387819         2.462636
