19
Iteration:  1225
 C         4.302615        -1.685765         0.893525
 C         3.297285        -0.659766         0.394967
 O         2.071332        -1.367940         0.034148
 C         1.467400        -0.111891        -0.023077
 C        -0.080334        -0.203068         0.177345
 C         2.149277         0.616037        -1.229778
 C         3.442073         0.643924        -0.428443
 C         2.686332         0.552519         0.996422
 O         2.854654         0.939134         2.296286
 H         4.264242        -1.906891         2.033880
 H         4.061257        -2.617282         0.409766
 H         5.352332        -1.430699         0.655041
 H        -0.421398        -0.253864         1.222395
 H        -0.657472         0.610131        -0.341118
 H        -0.394043        -1.092802        -0.417255
 H         2.214970        -0.080100        -2.123438
 H         1.691337         1.551608        -1.497829
 H         4.442958         1.028985        -0.595383
 H         2.229021         1.668258         2.432960
