19
Iteration:  2426
 C         4.405709        -1.638232         0.986535
 C         3.197346        -0.835470         0.581565
 O         1.913505        -1.529823         0.391893
 C         1.401513        -0.110533         0.086109
 C        -0.004697         0.269654         0.599506
 C         2.024355         0.178931        -1.253824
 C         3.412241         0.257791        -0.688501
 C         2.778821         0.513117         0.744731
 O         2.999093         1.470514         1.670528
 H         4.508727        -2.003673         1.962864
 H         4.434038        -2.503605         0.309535
 H         5.312996        -1.160001         0.681015
 H         0.044317         0.091840         1.743702
 H        -0.246963         1.331130         0.255702
 H        -0.910665        -0.384986         0.417088
 H         1.743669        -0.549174        -2.040265
 H         1.925375         1.178421        -1.722320
 H         4.299098         0.570116        -1.278897
 H         2.473325         1.199545         2.426039
