19
Iteration:  1860charge 0 multiplicity 1
 C         4.395820        -1.707894         0.919286
 C         3.195529        -0.917561         0.561983
 O         1.987059        -1.455750         0.238444
 C         1.440093        -0.075949         0.018075
 C         0.061715        -0.031196         0.563704
 C         2.115345         0.464547        -1.314325
 C         3.418561         0.399865        -0.494530
 C         2.754791         0.442623         0.813321
 O         2.769056         1.412729         1.859390
 H         4.959158        -1.605077         1.809343
 H         3.987068        -2.765409         1.000153
 H         5.094821        -1.842293         0.133558
 H        -0.201925        -0.927092         1.093727
 H        -0.005840         0.798754         1.340915
 H        -0.840545         0.289445        -0.007365
 H         2.215629        -0.034261        -2.278622
 H         1.869665         1.517746        -1.467547
 H         4.383125         0.543956        -0.918377
 H         2.621836         2.260073         1.350809
