19
Iteration:  4712charge 0 multiplicity 1
 C         4.437490        -1.626374         0.987882
 C         3.264421        -0.868618         0.386618
 O         2.056428        -1.448504        -0.026942
 C         1.456314         0.006021        -0.006303
 C         0.022770         0.043345         0.398274
 C         2.089344         0.540572        -1.243638
 C         3.385674         0.454365        -0.430146
 C         2.697743         0.434360         0.855869
 O         2.722995         1.137629         2.096418
 H         4.865186        -2.340087         0.290705
 H         5.140416        -0.958810         1.532148
 H         3.989154        -2.148136         1.868942
 H        -0.444001        -0.875110        -0.064269
 H        -0.073181         0.087473         1.522966
 H        -0.486737         0.964181         0.122867
 H         1.944553        -0.110606        -2.115635
 H         1.847595         1.574763        -1.369747
 H         4.292228         0.904832        -0.650444
 H         2.972633         0.512602         2.786694
