19
Iteration:  1119
 C         4.488891        -1.696652         0.741076
 C         3.243474        -0.816089         0.439433
 O         2.034892        -1.425599         0.038747
 C         1.477107        -0.051692        -0.052152
 C        -0.030751         0.008502         0.324572
 C         2.296570         0.528660        -1.302705
 C         3.462057         0.596312        -0.222083
 C         2.577287         0.432923         0.959528
 O         2.604255         1.069116         2.228654
 H         4.168183        -2.722306         0.977578
 H         5.051448        -1.910228        -0.154838
 H         5.184222        -1.323990         1.454767
 H        -0.145117         0.135424         1.380826
 H        -0.609595         0.660122        -0.296846
 H        -0.423484        -1.004471         0.247932
 H         2.393866        -0.140187        -2.196682
 H         1.979790         1.474639        -1.648806
 H         4.451560         0.977131        -0.332643
 H         2.306573         1.970948         2.076751
