19
Iteration:  3172
 C         4.293023        -1.664034         1.338445
 C         3.386997        -0.769666         0.385857
 O         1.910248        -1.453724         0.330313
 C         1.419015        -0.159180         0.151448
 C         0.082585         0.254961         0.650333
 C         1.964931         0.176677        -1.366449
 C         3.431981         0.283366        -0.783460
 C         2.746449         0.529934         0.651459
 O         2.886692         1.312992         1.704408
 H         5.030401        -0.962802         1.628334
 H         3.629445        -2.030869         2.085779
 H         4.890420        -2.443150         0.938545
 H        -0.153081        -0.202149         1.611047
 H         0.136762         1.386534         0.757288
 H        -0.829914         0.042352        -0.009620
 H         1.796183        -0.653247        -2.063149
 H         1.745055         1.169790        -1.689251
 H         4.340582         0.523980        -1.278522
 H         3.526799         2.031442         1.553180
