19
Iteration:  4727charge 0 multiplicity 1
 C         4.428562        -1.544725         0.957885
 C         3.288153        -0.742816         0.425373
 O         2.010376        -1.412218        -0.002353
 C         1.447974        -0.130043         0.081208
 C        -0.031880         0.103850         0.327717
 C         2.111009         0.446435        -1.261614
 C         3.490558         0.424497        -0.541470
 C         2.661719         0.466968         0.958159
 O         2.710004         1.069248         2.182358
 H         4.801012        -2.337659         0.222734
 H         5.181795        -0.824779         0.853031
 H         4.320882        -2.150360         1.881817
 H        -0.718399        -0.503895        -0.262143
 H        -0.333845        -0.096911         1.432971
 H        -0.224623         1.140685        -0.003242
 H         1.954547        -0.164665        -2.213517
 H         1.814635         1.543955        -1.549311
 H         4.542321         0.655085        -0.941829
 H         3.142208         0.376546         2.764726
