19
Iteration:  4093charge 0 multiplicity 1
 C         4.430468        -1.615690         0.835651
 C         3.242784        -0.839179         0.557658
 O         1.964165        -1.458296         0.194733
 C         1.433427        -0.016994         0.079545
 C        -0.054865         0.097226         0.311130
 C         2.088009         0.373167        -1.276967
 C         3.386259         0.368424        -0.434007
 C         2.641727         0.494635         0.889423
 O         2.904542         1.195894         2.033009
 H         5.078759        -1.998023        -0.006387
 H         5.151813        -0.892425         1.418343
 H         4.316951        -2.528323         1.499256
 H        -0.219630        -0.165408         1.387366
 H        -0.588634         0.951154        -0.115907
 H        -0.340920        -0.798204        -0.147460
 H         2.061586        -0.453856        -2.021909
 H         1.936734         1.411620        -1.723509
 H         4.417266         0.622603        -0.844270
 H         3.032427         2.147275         1.801112
