19
Iteration:  4335charge 0 multiplicity 1
 C         4.234736        -1.714428         1.222372
 C         3.304696        -0.844334         0.379558
 O         2.066196        -1.490133         0.060058
 C         1.419416        -0.119030         0.023598
 C         0.039713        -0.119563         0.612457
 C         2.084137         0.542783        -1.275893
 C         3.445337         0.574678        -0.524716
 C         2.752663         0.441522         0.733734
 O         2.749445         1.335598         1.824863
 H         3.983633        -2.738889         0.760673
 H         5.247671        -1.551683         1.045893
 H         4.194906        -1.663272         2.327898
 H        -0.585488        -0.122501        -0.282749
 H        -0.178232        -1.038507         1.227308
 H        -0.077538         0.737322         1.302392
 H         1.941286         0.138195        -2.281699
 H         1.647664         1.608035        -1.169777
 H         4.450228         1.026669        -0.814037
 H         3.719369         1.379968         2.085868
