19
Iteration:  3179
 C         4.365721        -1.646087         1.286713
 C         3.397834        -0.811411         0.398776
 O         1.886302        -1.431130         0.367199
 C         1.422713        -0.173928         0.075199
 C         0.076014         0.297919         0.618564
 C         1.976923         0.132900        -1.385626
 C         3.353762         0.261949        -0.774835
 C         2.759509         0.478119         0.643452
 O         2.879920         1.364105         1.785438
 H         4.962102        -0.895502         1.917291
 H         3.609608        -2.078290         2.034086
 H         4.973374        -2.443415         0.789283
 H        -0.158017        -0.290752         1.557435
 H         0.167357         1.374027         0.870463
 H        -0.780681         0.276258        -0.013183
 H         1.836538        -0.693695        -2.115216
 H         1.626255         1.165395        -1.729346
 H         4.387058         0.683855        -1.149041
 H         3.649034         1.935734         1.470947
