19
Iteration:  3615charge 0 multiplicity 1
 C         4.276962        -1.741246         1.033103
 C         3.283444        -0.867966         0.363091
 O         1.979839        -1.415791        -0.005237
 C         1.419188        -0.087685        -0.034104
 C         0.042494         0.004635         0.474941
 C         2.138278         0.541448        -1.312356
 C         3.378963         0.489127        -0.427166
 C         2.709475         0.441688         0.907771
 O         2.894309         1.197433         2.102660
 H         5.094375        -1.300342         1.562116
 H         3.830553        -2.591212         1.555739
 H         4.787587        -2.390346         0.294884
 H         0.047550         0.260279         1.569206
 H        -0.464985         0.839218        -0.014192
 H        -0.526230        -0.859030         0.353277
 H         2.049966        -0.169250        -2.100844
 H         1.719696         1.551496        -1.517029
 H         4.321800         1.088460        -0.669900
 H         2.934541         2.140218         1.771427
