19
Iteration:  1187
 C         4.354709        -1.632947         1.129559
 C         3.295600        -0.821563         0.420855
 O         2.026995        -1.370584        -0.186298
 C         1.347241        -0.058390        -0.076023
 C        -0.053261        -0.239117         0.306263
 C         2.174900         0.791368        -1.207166
 C         3.436042         0.629185        -0.308447
 C         2.659634         0.375843         0.870943
 O         2.854748         0.964013         2.179472
 H         4.101404        -1.780549         2.164222
 H         4.334537        -2.648048         0.576435
 H         5.257093        -1.025277         0.905363
 H        -0.305477        -0.081103         1.361228
 H        -0.672201         0.258213        -0.422828
 H        -0.264101        -1.303315         0.169115
 H         2.243444         0.385886        -2.220404
 H         1.617040         1.777595        -1.299856
 H         4.491083         0.971394        -0.419507
 H         3.275864         1.851931         2.088222
