19
Iteration:   739
 C         4.376232        -1.674891         0.778589
 C         3.310598        -0.688683         0.467256
 O         2.140756        -1.379714         0.021893
 C         1.487469        -0.066483        -0.018333
 C        -0.023769        -0.090486         0.168611
 C         2.202266         0.622430        -1.259008
 C         3.425706         0.631742        -0.345875
 C         2.605577         0.432182         0.976050
 O         2.691623         0.906073         2.327153
 H         4.025364        -2.481723         1.405074
 H         4.601012        -2.297666        -0.153616
 H         5.299135        -1.314672         1.176433
 H        -0.435519         0.929013        -0.082383
 H        -0.673765        -0.832119        -0.365419
 H        -0.289524        -0.291145         1.271253
 H         2.157414         0.124540        -2.240714
 H         1.979542         1.732925        -1.425594
 H         4.375689         1.215374        -0.465108
 H         1.806585         1.239809         2.526572
