19
Iteration:  2753
 C         4.493735        -1.557332         1.045233
 C         3.227136        -0.844631         0.516946
 O         1.902387        -1.442832         0.506245
 C         1.356247        -0.042144         0.076411
 C        -0.007873         0.090036         0.508330
 C         1.953127         0.136671        -1.363024
 C         3.317993         0.315785        -0.645175
 C         2.700928         0.495677         0.700884
 O         3.168855         1.418991         1.675159
 H         5.362161        -1.299107         0.441901
 H         4.598178        -1.233393         2.123771
 H         4.288718        -2.624406         1.050582
 H        -0.286911        -0.603294         1.254101
 H        -0.303053         1.048089         0.865738
 H        -0.789641        -0.033959        -0.197088
 H         1.773162        -0.777401        -1.917542
 H         1.464638         1.019606        -1.826661
 H         4.236486         0.910361        -0.911560
 H         2.795297         1.291025         2.562570
