19
Iteration:  1336charge 0 multiplicity 1
 C         4.301196        -1.811360         0.932886
 C         3.381393        -0.713321         0.395320
 O         2.230714        -1.426535         0.051088
 C         1.519252        -0.078869         0.108649
 C         0.018827        -0.155373         0.371091
 C         2.103369         0.657145        -1.233797
 C         3.456024         0.511731        -0.578438
 C         2.728703         0.519682         0.892930
 O         2.483244         1.127428         2.136853
 H         3.604738        -2.701822         0.727882
 H         5.326199        -1.757395         0.576230
 H         4.356430        -1.720792         2.034935
 H        -0.559032        -1.055738         0.640106
 H        -0.107041         0.491425         1.266731
 H        -0.394128         0.236753        -0.601948
 H         1.860353         0.022420        -2.156439
 H         1.707105         1.642213        -1.186293
 H         4.543500         0.886990        -0.707886
 H         2.901775         2.024134         2.164426
