19
Iteration:  4424
 C         4.540100        -1.591852         0.770409
 C         3.182756        -0.955703         0.590210
 O         1.992483        -1.547398         0.273098
 C         1.434856        -0.190734         0.045502
 C        -0.090299         0.107421         0.219366
 C         2.048323         0.385371        -1.212754
 C         3.374833         0.448571        -0.439382
 C         2.703344         0.464893         0.898533
 O         2.952105         1.391060         2.014543
 H         5.015812        -1.898634        -0.224126
 H         5.067586        -0.878615         1.349583
 H         4.525848        -2.591256         1.160048
 H        -0.686710        -0.290019        -0.592374
 H        -0.597789         0.111798         1.194622
 H        -0.145749         1.264330         0.001861
 H         2.101978        -0.413541        -1.960213
 H         1.501645         1.317140        -1.513779
 H         4.387687         0.799428        -0.661592
 H         2.160538         1.499401         2.620823
