19
Iteration:  2885
 C         4.477391        -1.721897         0.847533
 C         3.282342        -0.815790         0.486423
 O         1.985334        -1.512136         0.616986
 C         1.376432        -0.123013         0.268542
 C        -0.124035         0.157283         0.414113
 C         2.000220         0.186371        -1.252611
 C         3.331765         0.237842        -0.669358
 C         2.749430         0.532178         0.793341
 O         3.071655         1.569462         1.666789
 H         5.282821        -1.251966         1.391579
 H         3.989931        -2.374767         1.546269
 H         4.867339        -2.366804         0.073118
 H        -0.477720         0.684525         1.327764
 H        -0.259100         0.969215        -0.291615
 H        -0.678022        -0.709057         0.091083
 H         1.940050        -0.550584        -2.063838
 H         1.618231         1.142045        -1.657552
 H         4.311537         0.603956        -1.019617
 H         2.147557         1.943770         1.847190
