19
Iteration:   853
 C         4.307079        -1.908142         0.840398
 C         3.411390        -0.715224         0.462945
 O         2.221181        -1.383875        -0.030959
 C         1.503749        -0.105763         0.057228
 C        -0.025483        -0.198599         0.232490
 C         2.064703         0.687574        -1.127020
 C         3.493313         0.618416        -0.449401
 C         2.746702         0.479588         0.912382
 O         2.470080         1.198496         2.221093
 H         3.593429        -2.748338         1.221890
 H         4.936141        -2.277402        -0.051207
 H         5.170318        -1.623528         1.574435
 H        -0.254339        -0.335629         1.365828
 H        -0.566496         0.745640        -0.181175
 H        -0.234291        -1.151101        -0.334110
 H         1.818203         0.009704        -2.129218
 H         1.683436         1.709676        -1.281265
 H         4.273074         1.306982        -0.619863
 H         3.267825         1.482326         2.676443
