19
Iteration:  2325
 C         4.201223        -1.775190         1.128760
 C         3.232807        -0.911234         0.436712
 O         1.934791        -1.408519         0.265012
 C         1.465668        -0.080179         0.218412
 C        -0.046535        -0.018789         0.612733
 C         1.964270         0.343784        -1.231306
 C         3.353161         0.262767        -0.602513
 C         2.849681         0.568951         0.723250
 O         3.154529         1.593072         1.550893
 H         3.979072        -2.211547         2.064861
 H         4.624143        -2.529645         0.551969
 H         5.116598        -1.194046         1.293148
 H        -0.239795        -0.509081         1.543911
 H        -0.089287         1.063162         0.835844
 H        -0.823775        -0.341651        -0.076065
 H         1.770876        -0.484008        -1.942547
 H         1.786249         1.322456        -1.636734
 H         4.341018         0.492350        -0.998955
 H         2.637404         1.211922         2.292230
