19
Iteration:  1415
 C         4.512974        -1.500908         0.950584
 C         3.264957        -0.808368         0.496739
 O         1.973204        -1.414020         0.066678
 C         1.391454        -0.068225         0.043159
 C        -0.103828        -0.075650         0.163444
 C         2.095898         0.540872        -1.282863
 C         3.350982         0.427129        -0.439318
 C         2.674242         0.445079         0.935317
 O         2.882512         1.043162         2.199176
 H         5.395436        -1.204320         0.387501
 H         4.794527        -1.119984         2.013193
 H         4.569346        -2.583002         1.182150
 H        -0.318794        -0.979043         0.817091
 H        -0.598503         0.872410         0.527765
 H        -0.391083        -0.199525        -0.945110
 H         1.853751        -0.171114        -2.064637
 H         1.855932         1.609345        -1.548079
 H         4.319858         0.727692        -0.693476
 H         3.347247         1.893682         2.101730
