19
Iteration:   162
 C         4.218145        -1.818465         0.839949
 C         3.350105        -0.790550         0.336998
 O         2.108393        -1.324756        -0.167243
 C         1.475923         0.055787         0.082871
 C        -0.139317        -0.054991        -0.059931
 C         2.097789         0.770523        -1.111615
 C         3.485753         0.659201        -0.240377
 C         2.789140         0.400070         1.083200
 O         2.776034         0.851443         2.368747
 H         3.523467        -2.507321         1.276738
 H         4.750401        -2.248554        -0.031281
 H         5.136079        -1.412795         1.421399
 H        -0.332790         0.792089        -0.671478
 H        -0.344411        -1.064056        -0.546283
 H        -0.679366        -0.028616         0.936748
 H         1.939605         0.312039        -2.117912
 H         1.787280         1.956505        -0.992221
 H         4.317779         1.235718        -0.312126
 H         3.191245         0.319647         3.072995
