19
Iteration:  3450charge 0 multiplicity 1
 C         4.293047        -1.936609         1.070306
 C         3.281215        -1.019018         0.419969
 O         2.022203        -1.501441         0.154776
 C         1.384894        -0.142983         0.124823
 C        -0.061926        -0.100118         0.356608
 C         2.068545         0.621720        -1.141434
 C         3.427736         0.440581        -0.443872
 C         2.766663         0.511401         0.922426
 O         2.932088         1.592894         1.750898
 H         3.872613        -2.958737         1.096174
 H         5.226962        -1.880440         0.419842
 H         4.560097        -1.664604         2.080579
 H        -0.652427         0.756840        -0.269248
 H        -0.663207        -1.073677         0.219499
 H        -0.170790         0.210672         1.420308
 H         1.722698         0.447248        -2.162688
 H         1.858885         1.749857        -0.998377
 H         4.400327         0.679759        -0.808534
 H         3.423680         2.211160         1.233754
