19
Iteration:  2760charge 0 multiplicity 1
 C         4.463096        -1.579675         1.099561
 C         3.259252        -0.815907         0.508293
 O         1.899579        -1.468288         0.461719
 C         1.423704        -0.122252         0.136408
 C        -0.041846         0.117745         0.555444
 C         1.929280         0.162588        -1.363773
 C         3.323403         0.309345        -0.674608
 C         2.717048         0.574989         0.686756
 O         3.152632         1.411869         1.651996
 H         5.399034        -1.375006         0.599375
 H         4.578458        -1.149542         2.041650
 H         4.279294        -2.647313         1.109447
 H        -0.303416        -0.634718         1.349487
 H        -0.278504         1.189293         0.919686
 H        -0.779399        -0.051661        -0.318031
 H         1.962259        -0.643383        -2.116530
 H         1.412783         1.035356        -1.733633
 H         4.153153         0.869441        -1.025515
 H         2.628466         0.993352         2.401749
