19
Iteration:  3756charge 0 multiplicity 1
 C         4.474919        -1.664221         0.828205
 C         3.283095        -0.832656         0.415479
 O         1.990030        -1.434078         0.092978
 C         1.491902        -0.029495         0.059850
 C        -0.000481         0.199693         0.433000
 C         2.141388         0.522246        -1.253327
 C         3.466768         0.394468        -0.476398
 C         2.725003         0.485327         0.852282
 O         2.647842         0.952961         2.147100
 H         4.194969        -2.654544         0.527443
 H         5.473246        -1.294969         0.464183
 H         4.440967        -1.587703         1.958865
 H        -0.433183         1.000395        -0.239856
 H        -0.509950        -0.770021         0.368318
 H        -0.058646         0.401103         1.463295
 H         1.886418        -0.152247        -2.074454
 H         2.052907         1.623830        -1.542934
 H         4.409473         0.869126        -0.636590
 H         2.111665         1.785846         1.994008
