19
Iteration:  1698
 C         4.428804        -1.660562         0.973042
 C         3.239038        -0.853383         0.513209
 O         2.021883        -1.409093         0.112235
 C         1.511530        -0.066021         0.070863
 C         0.100495        -0.046166         0.507611
 C         2.090373         0.422381        -1.306536
 C         3.416222         0.244097        -0.545123
 C         2.742705         0.485861         0.875140
 O         2.706470         1.392684         1.914650
 H         4.375262        -2.639892         0.470406
 H         5.479577        -1.138469         0.657587
 H         4.283771        -1.795290         2.078222
 H        -0.727354        -0.087897        -0.253772
 H        -0.170901        -0.833340         1.308721
 H        -0.126199         0.853727         1.187314
 H         1.605860        -0.079923        -2.203422
 H         1.826702         1.559681        -1.485213
 H         4.371826         0.729132        -0.829614
 H         1.849723         1.820375         2.005976
