19
Iteration:  3400
 C         4.405458        -1.693694         0.904183
 C         3.220168        -0.837951         0.570682
 O         1.893118        -1.417993         0.389591
 C         1.360911        -0.078040        -0.015990
 C        -0.000551         0.147784         0.421474
 C         2.165879         0.240644        -1.333644
 C         3.445284         0.339065        -0.599510
 C         2.782730         0.634034         0.783026
 O         2.864941         1.257667         1.999720
 H         4.362751        -2.562505         0.221851
 H         5.395417        -1.254957         0.771159
 H         4.309414        -2.039879         1.944458
 H        -0.216761         1.109188         0.755622
 H        -0.714543        -0.008816        -0.394508
 H        -0.218475        -0.503343         1.224788
 H         2.220224        -0.553952        -2.107718
 H         1.740811         1.045888        -1.915748
 H         4.519764         0.524125        -0.895656
 H         2.677080         2.228106         1.844818
