19
Iteration:  1101
 C         4.333957        -1.597870         0.570975
 C         3.174882        -0.780968         0.629967
 O         2.004354        -1.381004         0.099269
 C         1.523938        -0.106832        -0.006441
 C        -0.003891        -0.086435         0.284395
 C         2.374940         0.494653        -1.262469
 C         3.494625         0.565691        -0.323817
 C         2.619341         0.507083         0.972020
 O         2.585020         1.040325         2.220022
 H         4.107218        -2.668379         0.757354
 H         5.002499        -1.640649        -0.452407
 H         5.110318        -1.505490         1.425633
 H        -0.125681         0.025970         1.411961
 H        -0.477036         0.804525        -0.163789
 H        -0.391863        -1.089383         0.013799
 H         2.762599        -0.313962        -1.913727
 H         2.210689         1.471419        -1.977055
 H         4.549308         0.898680        -0.471049
 H         2.361846         1.962628         2.328181
