19
Iteration:  4280
 C         4.386315        -1.695823         0.907201
 C         3.272880        -0.805699         0.471629
 O         2.020993        -1.451383         0.226171
 C         1.376286        -0.125533         0.095302
 C        -0.055724        -0.039603         0.363284
 C         2.191980         0.508790        -1.257794
 C         3.383012         0.419658        -0.471078
 C         2.744798         0.503592         0.854393
 O         2.846396         1.255764         1.959901
 H         4.174580        -2.818146         0.827852
 H         5.234478        -1.413160         0.355669
 H         4.527862        -1.539474         2.010787
 H        -0.701376        -0.648353        -0.268899
 H        -0.247351        -0.244852         1.457546
 H        -0.353474         0.992609         0.188110
 H         2.120032        -0.244935        -2.055977
 H         1.913943         1.576526        -1.594487
 H         4.363078         0.674208        -0.812690
 H         2.265700         2.048331         1.794156
