19
Iteration:   927charge 0 multiplicity 1
 C         4.570419        -1.507791         0.852815
 C         3.299890        -0.875134         0.469488
 O         2.016289        -1.503169        -0.057737
 C         1.457553        -0.098992         0.014595
 C         0.004560         0.026166         0.230613
 C         2.153034         0.598496        -1.196642
 C         3.463971         0.423342        -0.319300
 C         2.569215         0.341607         1.003304
 O         2.594232         1.084344         2.173290
 H         4.585784        -2.116920         1.692117
 H         4.940368        -2.180049         0.021241
 H         5.351771        -0.786677         1.092271
 H        -0.323267        -0.938813         0.717396
 H        -0.068610         0.821424         1.051427
 H        -0.489842         0.608174        -0.567977
 H         1.993617         0.195179        -2.159440
 H         1.932010         1.711474        -1.237875
 H         4.345561         0.931757        -0.464090
 H         2.496693         1.984440         1.780895
