19
Iteration:  3946
 C         4.384265        -1.728518         0.987704
 C         3.271974        -0.868904         0.409723
 O         2.047037        -1.450827        -0.024322
 C         1.449085        -0.143381         0.023999
 C         0.007038         0.027134         0.497623
 C         2.156179         0.585687        -1.296664
 C         3.417277         0.466122        -0.440461
 C         2.731582         0.403031         0.893882
 O         2.711184         1.221287         2.038556
 H         3.969396        -2.099625         1.964688
 H         4.844057        -2.596074         0.539811
 H         5.100663        -1.019481         1.397766
 H         0.026817         0.761192         1.220990
 H        -0.589671         0.421625        -0.287109
 H        -0.566647        -0.819337         0.923993
 H         1.983130         0.176798        -2.325338
 H         1.624725         1.512271        -1.124885
 H         4.494687         0.730865        -0.742585
 H         2.738846         2.141465         1.717456
