19
Iteration:  4706charge 0 multiplicity 1
 C         4.411157        -1.649932         1.043128
 C         3.271053        -0.861420         0.368051
 O         2.043362        -1.473466        -0.005364
 C         1.446891        -0.003071        -0.020735
 C         0.041653         0.014401         0.424277
 C         2.087453         0.631458        -1.221049
 C         3.418162         0.473621        -0.450511
 C         2.677455         0.375762         0.883528
 O         2.734421         1.179343         2.031889
 H         4.877286        -2.364200         0.303915
 H         5.117038        -0.962084         1.478516
 H         3.915607        -2.430574         1.667748
 H        -0.408277        -0.902557         0.093152
 H         0.052287         0.002985         1.549159
 H        -0.606209         0.851686         0.089890
 H         2.180553        -0.042813        -2.107703
 H         1.681477         1.674402        -1.512847
 H         4.380980         1.097174        -0.544198
 H         2.882294         0.455165         2.657348
