19
Iteration:  2184charge 0 multiplicity 1
 C         4.436672        -1.632091         1.078078
 C         3.221787        -0.903245         0.557860
 O         1.907593        -1.513617         0.246400
 C         1.344181        -0.057103         0.123628
 C        -0.046638         0.107004         0.475774
 C         1.938653         0.408496        -1.156686
 C         3.329820         0.193493        -0.616059
 C         2.750674         0.483498         0.773335
 O         3.180407         1.423407         1.699117
 H         4.485901        -1.313088         2.115939
 H         4.180046        -2.709149         1.169389
 H         5.424691        -1.470203         0.625896
 H        -0.329892        -0.411066         1.405669
 H        -0.274722         1.237720         0.564687
 H        -0.744869        -0.358839        -0.288034
 H         1.567473        -0.315848        -1.900409
 H         1.648606         1.416739        -1.357325
 H         4.336253         0.364711        -1.092020
 H         3.367699         2.238655         1.223703
