19
Iteration:   990charge 0 multiplicity 1
 C         4.225606        -1.568031         1.109516
 C         3.255636        -0.722363         0.379216
 O         2.087960        -1.368631        -0.103969
 C         1.448347        -0.008614        -0.008864
 C        -0.001444        -0.295294         0.310641
 C         2.161286         0.621268        -1.270013
 C         3.489427         0.621313        -0.474063
 C         2.673908         0.536451         0.911830
 O         2.821833         0.872943         2.232231
 H         3.810522        -1.668773         2.147734
 H         4.157413        -2.532717         0.456737
 H         5.205457        -1.089156         1.050672
 H        -0.189405        -1.303766         0.674659
 H        -0.347006         0.306087         1.155350
 H        -0.744431         0.012897        -0.450857
 H         2.186754        -0.072034        -2.147494
 H         1.892860         1.734919        -1.534601
 H         4.452648         0.907084        -0.826564
 H         2.757033         1.854340         2.349789
