19
Iteration:  2167charge 0 multiplicity 1
 C         4.291753        -1.629813         1.159527
 C         3.187594        -0.892163         0.427954
 O         1.909228        -1.446275         0.290609
 C         1.371471        -0.024858         0.092201
 C        -0.124297        -0.028489         0.609788
 C         2.035223         0.382391        -1.334080
 C         3.352120         0.175997        -0.579861
 C         2.787276         0.481693         0.820638
 O         3.248724         1.449813         1.695523
 H         4.646411        -0.963224         1.963285
 H         3.974616        -2.723285         1.147159
 H         5.009644        -1.550917         0.316757
 H        -0.189060        -0.875339         1.314159
 H        -0.434113         0.920438         0.977798
 H        -0.769461        -0.256025        -0.215079
 H         1.787040        -0.062802        -2.318739
 H         1.987518         1.521536        -1.332562
 H         4.354028         0.523162        -0.796695
 H         3.066093         2.270171         1.240543
