19
Iteration:  3250
 C         4.444693        -1.822328         0.938713
 C         3.189955        -0.925727         0.675022
 O         1.945596        -1.472811         0.516709
 C         1.411158        -0.118483         0.157139
 C        -0.047275         0.131994         0.324393
 C         2.013330         0.273297        -1.259343
 C         3.390253         0.294408        -0.550865
 C         2.777230         0.500908         0.798539
 O         3.023455         1.630163         1.651244
 H         5.086954        -1.463108         1.753401
 H         3.985883        -2.687528         1.418190
 H         4.874613        -2.159300        -0.026397
 H        -0.519422        -0.706419         0.872699
 H        -0.337894         1.046705         0.908001
 H        -0.515558         0.263954        -0.722055
 H         1.781826        -0.462368        -2.072595
 H         1.516201         1.208261        -1.548379
 H         4.377934         0.429532        -0.935145
 H         2.865583         2.449749         1.104173
