19
Iteration:  1127charge 0 multiplicity 1
 C         4.508136        -1.728417         0.788782
 C         3.302386        -0.864798         0.421474
 O         2.062600        -1.416079        -0.005443
 C         1.472623        -0.082957        -0.056164
 C        -0.040433         0.025866         0.302597
 C         2.190071         0.593441        -1.215200
 C         3.463934         0.558616        -0.291307
 C         2.594124         0.417256         0.976336
 O         2.590795         1.078656         2.203786
 H         4.224202        -2.667202         1.290036
 H         5.094492        -1.977693        -0.017582
 H         5.143561        -1.279825         1.517303
 H        -0.126822         0.332819         1.361987
 H        -0.645637         0.754928        -0.288244
 H        -0.431923        -1.003714         0.192267
 H         2.454510        -0.036371        -2.077135
 H         1.934556         1.548270        -1.525404
 H         4.390415         1.111364        -0.426874
 H         2.377437         2.020454         2.114920
