19
Iteration:  3616charge 0 multiplicity 1
 C         4.273011        -1.753149         1.038037
 C         3.285207        -0.863470         0.367751
 O         1.974281        -1.417120        -0.014378
 C         1.433915        -0.079427        -0.027280
 C         0.046254        -0.001550         0.465559
 C         2.128527         0.543128        -1.310447
 C         3.370557         0.494252        -0.421714
 C         2.718338         0.444745         0.908445
 O         2.897580         1.202787         2.096149
 H         5.101958        -1.318812         1.545610
 H         3.845983        -2.566322         1.570492
 H         4.761052        -2.422797         0.322604
 H         0.049226         0.237451         1.553718
 H        -0.520875         0.817310        -0.021619
 H        -0.508818        -0.904796         0.386199
 H         2.059476        -0.158771        -2.107813
 H         1.728101         1.552673        -1.486048
 H         4.296725         1.077573        -0.674404
 H         2.934833         2.138139         1.784803
