19
Iteration:  4592charge 0 multiplicity 1
 C         4.533027        -1.598762         0.769085
 C         3.245059        -0.840261         0.515379
 O         1.976923        -1.485965         0.181002
 C         1.396140        -0.034813         0.085638
 C        -0.043295         0.103179         0.147848
 C         2.085871         0.341002        -1.202642
 C         3.407694         0.453131        -0.394703
 C         2.646720         0.423437         0.948572
 O         2.849922         1.272394         2.072589
 H         4.866948        -2.084423        -0.153286
 H         5.258782        -0.802925         1.167103
 H         4.559620        -2.357603         1.563271
 H        -0.495228         0.011726        -0.885897
 H        -0.454377        -0.610512         0.905498
 H        -0.250948         1.108473         0.612827
 H         1.913859        -0.543551        -1.914716
 H         1.747825         1.318632        -1.536971
 H         4.404731         0.833515        -0.769621
 H         2.727437         0.822835         2.959395
