19
Iteration:    76
 C         4.417496        -1.867469         0.734703
 C         3.324204        -0.935790         0.355594
 O         2.141227        -1.385177        -0.238964
 C         1.495251        -0.055233         0.032602
 C         0.037181         0.158611         0.229990
 C         2.182890         0.828379        -1.019724
 C         3.512229         0.489339        -0.253201
 C         2.608514         0.243137         1.062458
 O         2.514053         1.083542         2.192489
 H         4.174645        -2.458654         1.584888
 H         4.900020        -2.520784         0.027559
 H         5.057248        -1.116934         1.229579
 H        -0.182744         1.048350         0.687707
 H        -0.499634         0.216238        -0.707050
 H        -0.402453        -0.638372         0.829447
 H         2.025818         0.618030        -1.994556
 H         1.894380         1.978312        -0.932809
 H         4.261638         1.239888        -0.223112
 H         2.120186         0.560414         2.952987
