19
Iteration:  2595
 C         4.408459        -1.589870         1.081725
 C         3.306617        -0.884895         0.451576
 O         2.075110        -1.522540         0.382254
 C         1.353291        -0.052748         0.183153
 C         0.040759         0.271227         0.600950
 C         1.873153         0.188100        -1.286991
 C         3.247731         0.153139        -0.740505
 C         2.700163         0.507659         0.668836
 O         3.026579         1.497344         1.730825
 H         4.333476        -1.520395         2.179098
 H         4.279381        -2.617843         0.945415
 H         5.404438        -1.269496         0.766786
 H        -0.209543         0.100574         1.695287
 H         0.056245         1.269185         0.111238
 H        -0.525529        -0.332883        -0.180798
 H         1.651001        -0.574005        -2.044122
 H         1.648081         1.179838        -1.640561
 H         4.176638         0.605948        -1.180598
 H         3.165640         0.895375         2.458965
