19
Iteration:  2234charge 0 multiplicity 1
 C         4.361768        -1.678768         0.851019
 C         3.263323        -0.785716         0.591626
 O         1.916121        -1.426348         0.454908
 C         1.405726        -0.054761         0.155421
 C         0.034444         0.290487         0.534678
 C         1.988564         0.035618        -1.361867
 C         3.425564         0.235864        -0.677536
 C         2.771913         0.610206         0.709169
 O         2.930355         1.319888         1.883943
 H         4.266022        -2.393271         1.752448
 H         4.514011        -2.181787        -0.160985
 H         5.294321        -1.081757         0.977883
 H         0.012483         0.408620         1.625363
 H        -0.278814         1.163160         0.031198
 H        -0.667016        -0.525643         0.406596
 H         1.822934        -0.805102        -2.059143
 H         1.688368         1.062406        -1.756812
 H         4.387025         0.380979        -1.176180
 H         3.164978         2.279871         1.748287
