19
Iteration:  2839
 C         4.328631        -1.673504         0.996032
 C         3.225388        -0.862119         0.502844
 O         1.928415        -1.477490         0.433657
 C         1.461240        -0.110684         0.052626
 C         0.067788         0.074225         0.753196
 C         2.093356         0.220640        -1.406195
 C         3.356520         0.242308        -0.588796
 C         2.746698         0.542426         0.717903
 O         2.847582         1.559897         1.678500
 H         5.240957        -1.380668         0.538650
 H         4.468656        -1.807234         2.021409
 H         4.122168        -2.643133         0.590586
 H         0.172623         0.204171         1.829583
 H        -0.507069         0.960805         0.377156
 H        -0.403219        -0.875178         0.454492
 H         1.946218        -0.467898        -2.213701
 H         1.893542         1.264527        -1.693515
 H         4.371893         0.649794        -0.957162
 H         3.679840         2.021570         1.357228
