19
Iteration:  2484charge 0 multiplicity 1
 C         4.230421        -1.917772         1.082771
 C         3.308881        -0.839159         0.549275
 O         2.054454        -1.464933         0.313519
 C         1.451338        -0.137880         0.251001
 C         0.059760         0.032685         0.676895
 C         1.919145         0.343260        -1.278878
 C         3.372735         0.277355        -0.597808
 C         2.777499         0.573514         0.705369
 O         2.994311         1.691888         1.410231
 H         3.593315        -2.705738         1.520444
 H         4.734883        -2.342761         0.207130
 H         4.844079        -1.456838         1.837897
 H        -0.178177         0.003296         1.809489
 H        -0.555688         0.969313         0.560593
 H        -0.633264        -0.747499         0.145365
 H         1.561540        -0.115321        -2.204846
 H         1.763475         1.445268        -1.230453
 H         4.409405         0.435574        -0.832035
 H         3.020998         1.353960         2.354587
