19
Iteration:  1045
 C         4.452263        -1.693418         0.891068
 C         3.307790        -0.860894         0.453744
 O         2.129081        -1.514112        -0.089194
 C         1.492403        -0.184505         0.073386
 C        -0.081225        -0.006858         0.109993
 C         2.049586         0.660448        -1.017052
 C         3.447283         0.559074        -0.324448
 C         2.663266         0.355790         1.003509
 O         2.707534         1.186472         2.105712
 H         4.057769        -2.366845         1.720218
 H         4.897815        -2.376789         0.000463
 H         5.226391        -0.967212         1.253953
 H        -0.431087        -0.734552         0.868230
 H        -0.433984         1.016885         0.343845
 H        -0.663954        -0.244944        -0.812574
 H         1.950492         0.456669        -2.106695
 H         1.620235         1.776139        -0.893331
 H         4.391155         1.004786        -0.382007
 H         2.791973         2.148559         1.893292
