19
Iteration:   303
 C         4.445279        -1.665580         0.745413
 C         3.194631        -0.931751         0.411520
 O         2.019381        -1.346550        -0.261560
 C         1.452462         0.017775        -0.034293
 C        -0.051266         0.025930         0.129403
 C         2.280179         0.792695        -1.108025
 C         3.499535         0.534970        -0.149749
 C         2.648235         0.342019         1.074138
 O         2.630594         0.861415         2.362113
 H         4.205921        -2.425053         1.523369
 H         5.060655        -2.189154        -0.028537
 H         5.122058        -0.865070         1.216210
 H        -0.546802         0.811654         0.769208
 H        -0.553353         0.167226        -0.932693
 H        -0.406443        -1.028412         0.540327
 H         2.214649         0.189610        -2.157336
 H         1.872042         1.772082        -1.164485
 H         4.562744         0.732677        -0.222100
 H         3.197241         1.634089         2.458803
