19
Iteration:  4799charge 0 multiplicity 1
 C         4.405413        -1.684685         0.887793
 C         3.280587        -0.849874         0.398751
 O         2.110218        -1.426295         0.012479
 C         1.425587        -0.125085         0.042052
 C        -0.057952        -0.023428         0.313574
 C         2.140498         0.583069        -1.226876
 C         3.428223         0.416216        -0.389071
 C         2.586371         0.438193         0.962724
 O         2.836672         1.306606         2.081204
 H         4.363370        -2.707749         0.424183
 H         5.281721        -1.105933         0.410879
 H         4.399610        -2.037471         1.958807
 H        -0.515787         0.224428        -0.670948
 H        -0.520126        -0.974812         0.784760
 H        -0.337311         0.715987         1.074553
 H         2.084049        -0.083730        -2.095693
 H         1.654941         1.525920        -1.347273
 H         4.421264         0.805897        -0.308301
 H         2.286011         0.945737         2.827707
