19
Iteration:  2693charge 0 multiplicity 1
 C         4.410961        -1.766660         0.916911
 C         3.294188        -0.877154         0.547179
 O         2.029798        -1.405173         0.518155
 C         1.425984        -0.123031         0.194425
 C        -0.081425         0.062435         0.440174
 C         1.946754         0.287994        -1.222899
 C         3.232800         0.301940        -0.593994
 C         2.799720         0.485784         0.816785
 O         3.033417         1.597184         1.513524
 H         5.317854        -1.455354         1.436032
 H         3.875434        -2.218317         1.708791
 H         4.716000        -2.512035         0.183534
 H        -0.283414        -0.247380         1.531055
 H        -0.285691         1.138009         0.091854
 H        -0.375487        -0.748949        -0.305014
 H         1.748581        -0.467831        -2.016804
 H         1.387875         1.194164        -1.450765
 H         4.265889         0.538944        -0.892246
 H         3.046104         1.704321         2.450045
