19
Iteration:  2002charge 0 multiplicity 1
 C         4.231857        -1.731525         1.070834
 C         3.241452        -0.827345         0.475621
 O         2.042193        -1.485629         0.237533
 C         1.382071        -0.127870         0.074459
 C        -0.056515        -0.081929         0.517751
 C         2.015188         0.477160        -1.246877
 C         3.372458         0.407992        -0.648983
 C         2.805525         0.555766         0.756816
 O         3.062504         1.353399         1.868841
 H         4.210986        -2.702340         0.574123
 H         5.318199        -1.388426         1.367788
 H         3.841550        -1.971418         2.114164
 H        -0.079533         0.075656         1.604308
 H        -0.434905         0.799038        -0.072221
 H        -0.745775        -0.901482         0.235393
 H         1.973576        -0.105777        -2.217328
 H         1.641809         1.533104        -1.345064
 H         4.275754         0.861598        -1.080351
 H         3.193288         2.286387         1.549223
