19
Iteration:   115
 C         4.333250        -1.697619         0.741386
 C         3.133129        -0.935258         0.435765
 O         1.994311        -1.395889        -0.097973
 C         1.446965        -0.008039        -0.086711
 C        -0.118691        -0.009248         0.037112
 C         2.311470         0.846231        -1.060359
 C         3.511159         0.652950        -0.178798
 C         2.631459         0.346169         1.005909
 O         2.858788         0.876216         2.297855
 H         4.243347        -2.478839         1.532470
 H         4.912490        -2.072392        -0.130308
 H         4.975141        -0.837130         1.147122
 H        -0.439480         1.059578        -0.293948
 H        -0.481433        -0.831247        -0.630503
 H        -0.315006        -0.277241         1.120945
 H         2.398269         0.476373        -2.193210
 H         1.967095         1.854323        -1.049558
 H         4.513442         1.138144         0.060006
 H         2.355866         0.373418         2.937698
