19
Iteration:  1618
 C         4.474734        -1.609934         1.023035
 C         3.261039        -0.873690         0.441378
 O         2.000160        -1.456907         0.095265
 C         1.390235        -0.124251         0.098944
 C        -0.110964        -0.037430         0.270141
 C         2.047140         0.482532        -1.149961
 C         3.413245         0.361866        -0.496142
 C         2.769312         0.461984         0.902731
 O         2.862219         1.361574         1.939520
 H         4.347120        -2.296629         1.919473
 H         4.934108        -2.150653         0.197747
 H         5.256205        -0.868063         1.248422
 H        -0.755294        -0.939465         0.232209
 H        -0.533357         0.548103         1.090518
 H        -0.426989         0.506638        -0.638802
 H         1.993079        -0.037603        -2.115091
 H         1.657466         1.496433        -1.168511
 H         4.352341         0.820148        -0.729731
 H         3.205425         0.954858         2.751720
