19
Iteration:   868charge 0 multiplicity 1
 C         4.403102        -1.897708         0.770282
 C         3.374499        -0.756695         0.438774
 O         2.202737        -1.373765         0.023986
 C         1.563488        -0.077838         0.065298
 C         0.022452        -0.182115         0.229902
 C         2.090076         0.611414        -1.171796
 C         3.397512         0.610252        -0.335528
 C         2.630748         0.500902         1.004803
 O         2.472645         1.219270         2.141185
 H         3.689101        -2.719222         1.088641
 H         4.917515        -2.195252        -0.103299
 H         5.085732        -1.691486         1.589506
 H        -0.346280        -0.596881         1.109367
 H        -0.341005         0.801385         0.219492
 H        -0.435326        -0.742055        -0.557506
 H         2.026230         0.178214        -2.228059
 H         1.774911         1.656977        -1.131775
 H         4.435826         1.052125        -0.664225
 H         3.365929         1.475789         2.449399
