19
Iteration:  3582charge 0 multiplicity 1
 C         4.538757        -1.551290         0.943096
 C         3.215208        -0.884201         0.426392
 O         1.944758        -1.469834         0.157306
 C         1.424689        -0.015850         0.033393
 C         0.040116         0.256182         0.435438
 C         2.121250         0.422074        -1.252939
 C         3.427346         0.339676        -0.510782
 C         2.712997         0.451954         0.795969
 O         2.724217         0.995151         2.087290
 H         5.037207        -1.209633         1.836426
 H         4.241096        -2.603868         1.070141
 H         5.074040        -1.404528         0.032439
 H        -0.242922        -0.264067         1.391167
 H        -0.040064         1.329655         0.558197
 H        -0.556146         0.005888        -0.385026
 H         1.885042        -0.218233        -2.078309
 H         1.783594         1.435483        -1.563760
 H         4.428878         0.772253        -0.853064
 H         2.681657         1.952764         2.065615
