19
Iteration:  3549
 C         4.540280        -1.561112         0.930119
 C         3.284068        -0.854423         0.394428
 O         1.950135        -1.511772         0.265941
 C         1.448540        -0.071621         0.094121
 C        -0.023116         0.333029         0.311322
 C         2.032074         0.372068        -1.233031
 C         3.417843         0.338439        -0.609308
 C         2.738307         0.444114         0.824280
 O         2.784239         1.047401         2.149642
 H         4.673913        -1.547855         1.994471
 H         4.486872        -2.509143         0.353190
 H         5.402751        -1.168249         0.414069
 H        -0.777591        -0.506899         0.356248
 H        -0.164890         1.067565         1.105514
 H        -0.333269         0.885757        -0.527595
 H         1.994320        -0.253487        -2.098191
 H         1.869384         1.461259        -1.399624
 H         4.428125         0.619536        -1.075087
 H         2.179505         1.798655         2.126997
