19
Iteration:  3817
 C         4.226697        -1.764011         1.078690
 C         3.358756        -0.856823         0.378109
 O         2.016643        -1.382209        -0.123333
 C         1.420505        -0.063179         0.024119
 C        -0.041429        -0.203687         0.435183
 C         2.159221         0.763738        -1.192253
 C         3.442300         0.509157        -0.433246
 C         2.720588         0.402684         0.868222
 O         2.844565         1.179486         2.066272
 H         3.519160        -2.433490         1.634561
 H         4.951911        -2.414948         0.529841
 H         4.824808        -1.311535         1.876300
 H        -0.818219         0.353578        -0.177792
 H        -0.438219        -1.229475         0.490575
 H        -0.100399         0.185552         1.522249
 H         1.896375         0.331888        -2.192072
 H         1.989166         1.833420        -1.193178
 H         4.461202         0.908525        -0.790916
 H         3.263627         2.003906         1.727659
