19
Iteration:  2274charge 0 multiplicity 1
 C         4.359251        -1.773868         0.915313
 C         3.195156        -0.939518         0.568667
 O         1.865276        -1.499903         0.368059
 C         1.485024        -0.087782         0.144038
 C         0.031428         0.259210         0.719307
 C         2.082482         0.239930        -1.272303
 C         3.438391         0.296352        -0.668381
 C         2.818133         0.494443         0.718559
 O         2.928866         1.524782         1.644527
 H         4.107893        -2.657244         1.523846
 H         5.027350        -2.242608         0.132485
 H         5.033264        -1.229757         1.601141
 H        -0.065767         0.475892         1.826237
 H        -0.448914         1.126471         0.180653
 H        -0.565350        -0.649987         0.531687
 H         1.779976        -0.353995        -2.145719
 H         1.776074         1.277985        -1.438179
 H         4.422795         0.475070        -1.062166
 H         2.078261         1.957046         1.572382
