19
Iteration:  4505
 C         4.184704        -1.799451         1.137045
 C         3.363454        -0.810192         0.371363
 O         2.085956        -1.406296        -0.076860
 C         1.473398        -0.061314         0.041504
 C         0.042989        -0.137109         0.569949
 C         2.099735         0.542486        -1.284978
 C         3.413104         0.465672        -0.449478
 C         2.662852         0.500749         0.829849
 O         2.766834         1.352304         1.917093
 H         4.131129        -2.643532         0.511266
 H         5.281113        -1.468733         1.035229
 H         3.959721        -1.729880         2.226047
 H        -0.467707        -1.038489         0.239832
 H         0.193620        -0.480949         1.596929
 H        -0.530934         0.718697         0.551553
 H         1.957591        -0.055424        -2.276946
 H         2.003765         1.614502        -1.531312
 H         4.413301         1.037148        -0.613862
 H         3.294385         0.950383         2.646347
