19
Iteration:  2292charge 0 multiplicity 1
 C         4.345593        -1.878806         1.085364
 C         3.309433        -0.882053         0.510080
 O         2.008123        -1.470381         0.342199
 C         1.441880        -0.129118         0.151385
 C         0.114589         0.177248         0.622690
 C         1.887701         0.435118        -1.246662
 C         3.324592         0.191102        -0.615578
 C         2.747709         0.454559         0.760858
 O         2.991785         1.543788         1.547223
 H         3.807275        -2.616421         1.613761
 H         4.764430        -2.350401         0.247738
 H         5.042201        -1.278175         1.674524
 H         0.224107         0.353885         1.678578
 H        -0.081799         1.224675         0.261842
 H        -0.690109        -0.506497         0.296229
 H         1.556834        -0.082658        -2.182813
 H         1.676324         1.495130        -1.364900
 H         4.275053         0.645788        -0.956288
 H         2.145514         1.961721         1.705458
