19
Iteration:   597
 C         4.472731        -1.626119         0.821983
 C         3.249757        -0.846428         0.369800
 O         1.983515        -1.406323        -0.093590
 C         1.471995        -0.015874        -0.040938
 C         0.028422         0.051845         0.247453
 C         2.257390         0.730920        -1.171264
 C         3.450976         0.585079        -0.268905
 C         2.640927         0.404913         0.957576
 O         2.634608         0.769170         2.299201
 H         4.196698        -2.193375         1.728385
 H         4.842126        -2.274089        -0.059710
 H         5.286390        -0.904740         1.049135
 H        -0.342044        -0.913636        -0.097680
 H        -0.262983         0.184378         1.289936
 H        -0.469864         0.888793        -0.284326
 H         2.336623         0.121252        -2.108427
 H         1.874973         1.770439        -1.473289
 H         4.473805         0.964544        -0.320094
 H         2.069515         1.563911         2.430837
