19
Iteration:  1500charge 0 multiplicity 1
 C         4.420172        -1.651819         0.921035
 C         3.260580        -0.877397         0.398878
 O         1.924651        -1.415832         0.005479
 C         1.441065        -0.040748        -0.022538
 C         0.086760        -0.128057         0.600326
 C         2.318864         0.654508        -1.272236
 C         3.525580         0.347599        -0.365684
 C         2.602235         0.381522         0.939230
 O         2.616570         1.256803         1.970112
 H         4.843855        -1.016810         1.705482
 H         4.167036        -2.709701         1.151628
 H         5.026820        -1.556740         0.003787
 H        -0.121584        -0.018360         1.649828
 H        -0.677112         0.465142         0.130263
 H        -0.258547        -1.108776         0.277633
 H         2.153794         0.018911        -2.191092
 H         2.142662         1.747885        -1.392601
 H         4.461392         0.777726        -0.510274
 H         2.497880         2.153267         1.605394
