19
Iteration:   272charge 0 multiplicity 1
 C         4.399540        -1.832294         0.668164
 C         3.374358        -0.780094         0.458114
 O         2.131573        -1.393746        -0.062614
 C         1.524918        -0.140420        -0.035524
 C         0.057795         0.171896         0.186050
 C         2.205626         0.744056        -1.106368
 C         3.500591         0.656504        -0.239372
 C         2.621875         0.410487         0.977195
 O         2.469028         0.787302         2.286267
 H         3.879995        -2.580568         1.308996
 H         4.752592        -2.292323        -0.280219
 H         5.286678        -1.627274         1.247621
 H        -0.110514         0.948552         0.922517
 H        -0.508764         0.452316        -0.746900
 H        -0.672170        -0.605747         0.473454
 H         2.134253         0.428689        -2.129854
 H         1.647501         1.598581        -1.026847
 H         4.398745         1.324792        -0.177898
 H         2.134417         1.718859         2.366234
