19
Iteration:  4939
 C         4.588942        -1.521163         0.837562
 C         3.306940        -0.833966         0.405643
 O         1.915482        -1.450855         0.199665
 C         1.404042        -0.020443         0.009184
 C        -0.093263         0.181128         0.175026
 C         2.029736         0.495458        -1.224747
 C         3.450518         0.450933        -0.485069
 C         2.686242         0.371357         1.021220
 O         2.804009         1.011836         2.148517
 H         5.423830        -1.948675         0.285276
 H         5.052931        -0.694114         1.460359
 H         4.465942        -2.351815         1.529939
 H        -0.526719        -0.708415        -0.301383
 H        -0.275204         0.365474         1.231282
 H        -0.483002         0.998131        -0.459899
 H         1.791662        -0.294792        -2.062886
 H         1.757129         1.575636        -1.486861
 H         4.428396         0.675685        -1.029743
 H         3.133032         0.364207         2.833376
