19
Iteration:  1280
 C         4.570314        -1.576002         0.792554
 C         3.216123        -0.905182         0.417774
 O         2.108088        -1.530973        -0.072722
 C         1.419494        -0.089400        -0.036366
 C        -0.052346         0.018046         0.309171
 C         2.221683         0.564439        -1.122628
 C         3.433661         0.416182        -0.260403
 C         2.626351         0.360419         1.031988
 O         2.580508         1.218837         2.148011
 H         4.362211        -2.262587         1.674541
 H         4.794016        -2.078200        -0.102156
 H         5.171920        -0.709747         1.003599
 H        -0.559082        -0.736376         0.906230
 H        -0.211213         1.013984         0.770055
 H        -0.713447         0.154127        -0.564086
 H         2.233244         0.153729        -2.191237
 H         1.948228         1.594344        -1.189684
 H         4.456471         0.817147        -0.519454
 H         3.035750         2.010348         1.857159
