19
Iteration:  2777charge 0 multiplicity 1
 C         4.350671        -1.540234         1.201548
 C         3.303755        -0.832184         0.384962
 O         2.050253        -1.488769         0.360015
 C         1.370277        -0.173515         0.158832
 C        -0.000512         0.112261         0.618155
 C         1.908181         0.222064        -1.270178
 C         3.322401         0.268630        -0.770312
 C         2.806937         0.515856         0.656036
 O         3.028845         1.481446         1.677161
 H         5.330359        -1.557274         0.650303
 H         4.441342        -1.172136         2.317997
 H         3.917193        -2.580052         1.214017
 H        -0.493052        -0.395319         1.448508
 H        -0.060109         1.163065         0.786859
 H        -0.801298         0.056944        -0.114440
 H         1.524711        -0.481639        -2.045739
 H         1.650733         1.295927        -1.449805
 H         4.288984         0.301393        -1.323281
 H         2.972170         1.056819         2.589250
