19
Iteration:    91charge 0 multiplicity 1
 C         4.518113        -1.756178         0.827389
 C         3.311045        -0.914201         0.338332
 O         2.020409        -1.367088        -0.290857
 C         1.476404        -0.011091         0.007062
 C        -0.041436         0.112372         0.139452
 C         2.181598         0.824453        -1.014718
 C         3.427683         0.475789        -0.171671
 C         2.591452         0.222822         1.084585
 O         2.680784         1.037063         2.236916
 H         4.160150        -2.539662         1.569867
 H         4.867868        -2.311218        -0.079435
 H         5.358095        -1.205941         1.172010
 H        -0.075414         1.260672         0.220519
 H        -0.457020        -0.230983        -0.815631
 H        -0.400101        -0.441309         0.997392
 H         2.024429         0.509035        -2.104096
 H         1.982837         1.791877        -0.881547
 H         4.502078         0.789432        -0.151728
 H         2.002772         0.647124         2.835403
