19
Iteration:  1039
 C         4.448771        -1.652970         0.955686
 C         3.310363        -0.879450         0.484493
 O         2.119095        -1.500675        -0.140228
 C         1.424301        -0.209803         0.038753
 C        -0.045484        -0.021971         0.133876
 C         2.054778         0.753637        -1.046361
 C         3.431394         0.515536        -0.309681
 C         2.654178         0.339771         0.986588
 O         2.756502         1.164243         2.097746
 H         4.038335        -2.117792         1.819922
 H         4.700835        -2.303171         0.184419
 H         5.232552        -0.943992         1.234239
 H        -0.315173        -0.831807         0.852128
 H        -0.528040         0.870818         0.603423
 H        -0.579622        -0.230718        -0.809854
 H         1.934061         0.451988        -2.089625
 H         1.621568         1.690687        -0.828507
 H         4.423447         1.091815        -0.400785
 H         2.892389         1.994343         1.623188
