19
Iteration:  3914
 C         4.464948        -1.658267         0.746375
 C         3.253622        -0.795330         0.555427
 O         2.004333        -1.437820         0.224548
 C         1.456279         0.022292         0.077287
 C        -0.016185         0.080642         0.224689
 C         2.178452         0.425149        -1.304995
 C         3.408314         0.398748        -0.430291
 C         2.613781         0.511058         0.939901
 O         2.777532         1.060835         2.143914
 H         4.496566        -1.908653         1.838785
 H         4.430122        -2.595398         0.143375
 H         5.407284        -1.168738         0.464289
 H        -0.318124         0.940943         0.687936
 H        -0.338893         0.128727        -0.770006
 H        -0.356401        -0.844613         0.713447
 H         1.921336        -0.256283        -2.152286
 H         1.699044         1.377833        -1.536435
 H         4.391868         0.965452        -0.642732
 H         2.611298         2.013829         2.102163
