19
Iteration:  3147
 C         4.203242        -1.589409         1.278592
 C         3.225687        -0.836874         0.478667
 O         1.955075        -1.482598         0.249501
 C         1.435658        -0.048016         0.027999
 C         0.124441         0.113506         0.621939
 C         1.966247         0.271436        -1.357717
 C         3.369185         0.136328        -0.733454
 C         2.822207         0.483355         0.750204
 O         3.021747         1.429912         1.751184
 H         5.131447        -1.053888         1.159182
 H         3.733258        -1.534368         2.289631
 H         4.375726        -2.625682         1.059775
 H         0.269470        -0.043404         1.752065
 H        -0.391707         1.081239         0.423777
 H        -0.581588        -0.664977         0.346889
 H         1.680119        -0.404186        -2.185177
 H         1.806115         1.359836        -1.537370
 H         4.420874         0.554520        -0.958962
 H         2.938420         2.245788         1.264153
