19
Iteration:    49
 C         4.320350        -1.907543         0.687532
 C         3.285359        -0.814102         0.460011
 O         2.055700        -1.381379        -0.091331
 C         1.533745        -0.057305        -0.089249
 C         0.122637        -0.009213         0.358345
 C         2.307030         0.837975        -1.166050
 C         3.564930         0.685694        -0.178865
 C         2.612055         0.395193         0.963092
 O         2.426287         1.017987         2.151551
 H         3.814658        -2.694749         1.344461
 H         4.458860        -2.449898        -0.286867
 H         5.277950        -1.697416         1.209215
 H         0.030607         0.556569         1.409302
 H        -0.603679         0.543076        -0.298985
 H        -0.201817        -1.075436         0.525767
 H         2.412484         0.454284        -2.344751
 H         1.875698         1.860294        -1.278638
 H         4.672160         0.870046        -0.105648
 H         2.356959         0.325963         2.869431
