19
Iteration:  1939charge 0 multiplicity 1
 C         4.364822        -1.571466         0.965914
 C         3.291724        -0.785278         0.449727
 O         2.000293        -1.485524         0.302955
 C         1.385686        -0.149456         0.035285
 C        -0.034506         0.063863         0.368520
 C         1.994084         0.373453        -1.231629
 C         3.365729         0.374488        -0.598635
 C         2.687737         0.512177         0.857139
 O         3.038825         1.185297         1.953094
 H         3.839419        -2.364590         1.511181
 H         5.166144        -1.993026         0.312352
 H         4.904722        -0.978134         1.734688
 H        -0.289077         0.403643         1.450540
 H        -0.395198         1.045770        -0.118208
 H        -0.863529        -0.675840         0.130797
 H         1.898980        -0.205352        -2.138282
 H         1.551510         1.381715        -1.445503
 H         4.386426         0.723934        -0.878862
 H         3.282924         2.080728         1.622231
