19
Iteration:   714charge 0 multiplicity 1
 C         4.407389        -1.751998         0.753139
 C         3.188116        -0.840120         0.399548
 O         2.022298        -1.329162        -0.144726
 C         1.481160         0.011544         0.019662
 C        -0.015593        -0.267047         0.243560
 C         2.264437         0.732026        -1.152329
 C         3.498939         0.623770        -0.233123
 C         2.660862         0.415641         0.991506
 O         2.693405         1.110272         2.266558
 H         4.107757        -2.563505         1.375784
 H         4.923024        -2.219524        -0.005975
 H         5.234058        -1.281889         1.222959
 H        -0.600818         0.356819        -0.379623
 H        -0.350416        -1.228850        -0.060069
 H        -0.325243        -0.172262         1.253886
 H         2.263994         0.109778        -1.950879
 H         1.935168         1.668990        -1.486289
 H         4.524331         0.899703        -0.303265
 H         1.779816         1.294962         2.551893
