19
Iteration:   423charge 0 multiplicity 1
 C         4.453061        -1.647467         0.694025
 C         3.226694        -0.885363         0.425568
 O         2.013875        -1.367058        -0.239965
 C         1.471167         0.051574        -0.007536
 C         0.018904         0.046816         0.298239
 C         2.334268         0.851884        -1.150060
 C         3.525350         0.482690        -0.200452
 C         2.599340         0.237597         1.042707
 O         2.503254         0.819073         2.305219
 H         4.320969        -2.329213         1.536640
 H         4.783460        -2.349816        -0.087646
 H         5.172290        -0.911960         0.925838
 H        -0.526576         0.938236        -0.061470
 H        -0.573115        -0.647877        -0.283849
 H        -0.178805        -0.022222         1.382991
 H         2.257909         0.274962        -2.157577
 H         2.199465         1.885324        -1.196876
 H         4.533186         0.997221        -0.169464
 H         2.945281         1.704388         2.268361
