19
Iteration:  4072
 C         4.508140        -1.529074         0.812961
 C         3.236558        -0.894583         0.540802
 O         1.926824        -1.475381         0.315316
 C         1.392867        -0.126423         0.116229
 C        -0.093172         0.102288         0.128054
 C         2.096395         0.395271        -1.186478
 C         3.368997         0.412135        -0.494602
 C         2.719000         0.451243         0.879706
 O         2.924622         1.160348         2.057652
 H         4.709425        -2.310894        -0.038481
 H         5.403794        -0.805488         0.854019
 H         4.587822        -2.216443         1.724568
 H        -0.330852         0.515448         1.168642
 H        -0.087264         1.000809        -0.522412
 H        -0.831256        -0.606420        -0.194546
 H         1.938054        -0.158757        -2.124972
 H         1.633829         1.439796        -1.193258
 H         4.435924         0.774140        -0.681442
 H         2.934281         2.104176         1.924548
