19
Iteration:  2287
 C         4.351607        -1.850858         1.057420
 C         3.261238        -0.930808         0.541110
 O         1.997149        -1.441631         0.342688
 C         1.421457        -0.150860         0.171453
 C         0.117122         0.193468         0.650133
 C         1.936621         0.425110        -1.242425
 C         3.330409         0.190536        -0.618199
 C         2.803303         0.457926         0.702443
 O         2.962514         1.533380         1.562948
 H         3.786966        -2.664293         1.632453
 H         4.800019        -2.209985         0.059821
 H         5.059250        -1.254175         1.650956
 H         0.123759         0.397490         1.752394
 H        -0.087106         1.112664         0.114788
 H        -0.700280        -0.461899         0.368935
 H         1.805985        -0.186115        -2.146470
 H         1.625913         1.497277        -1.408509
 H         4.225525         0.689821        -0.943873
 H         2.119700         2.034720         1.710185
