19
Iteration:  3646
 C         4.148671        -1.832515         1.047833
 C         3.278337        -0.820567         0.429444
 O         2.050218        -1.355918         0.032445
 C         1.490901        -0.017474         0.076584
 C        -0.087693        -0.261246         0.374605
 C         2.086796         0.748515        -1.163833
 C         3.467336         0.437562        -0.471910
 C         2.794388         0.455052         0.864046
 O         2.945495         1.242833         1.960123
 H         5.243751        -1.712944         0.954380
 H         3.993832        -2.233332         2.140115
 H         3.950718        -2.753617         0.400068
 H        -0.504755         0.191571         1.337604
 H        -0.666993         0.174958        -0.415755
 H        -0.411364        -1.273166         0.522529
 H         1.849778         0.326241        -2.169575
 H         1.851079         1.851190        -1.009137
 H         4.416607         1.013304        -0.793388
 H         2.977494         2.156414         1.697095
