19
Iteration:  3398charge 0 multiplicity 1
 C         4.396807        -1.670385         0.904775
 C         3.223346        -0.836202         0.560936
 O         1.883630        -1.416119         0.397471
 C         1.375790        -0.104759        -0.005418
 C        -0.007441         0.159385         0.419470
 C         2.165329         0.213051        -1.350363
 C         3.459684         0.347066        -0.609997
 C         2.788947         0.630622         0.772285
 O         2.865522         1.253126         2.019254
 H         4.439527        -2.512180         0.212603
 H         5.413747        -1.242955         0.806381
 H         4.242360        -2.041596         1.891171
 H        -0.222862         1.172905         0.814324
 H        -0.767469         0.056741        -0.391876
 H        -0.255886        -0.499915         1.191115
 H         2.191286        -0.525964        -2.140731
 H         1.752566         1.076178        -1.916905
 H         4.486302         0.506954        -0.889601
 H         2.668373         2.191706         1.896602
