19
Iteration:   663
 C         4.414612        -1.833883         0.815982
 C         3.347196        -0.879357         0.381212
 O         2.161505        -1.436156        -0.182812
 C         1.509488        -0.149325         0.041717
 C        -0.043858        -0.026039         0.200886
 C         2.114854         0.833099        -0.993550
 C         3.414614         0.584302        -0.248668
 C         2.696964         0.304385         1.039417
 O         2.543316         1.193932         2.079394
 H         4.071920        -2.621630         1.513729
 H         5.015209        -2.309663        -0.047321
 H         5.261318        -1.345557         1.299072
 H        -0.482648         0.311701        -0.752511
 H        -0.568993        -1.006179         0.372828
 H        -0.378198         0.662057         1.054587
 H         2.055172         0.603759        -2.133775
 H         1.770292         1.920917        -0.754275
 H         4.289031         1.187719        -0.242903
 H         3.005961         0.911502         2.922115
