19
Iteration:  3548charge 0 multiplicity 1
 C         4.529584        -1.559386         0.924781
 C         3.275966        -0.860109         0.405594
 O         1.958452        -1.513061         0.265970
 C         1.447408        -0.070247         0.092993
 C        -0.026723         0.328047         0.311778
 C         2.027965         0.373606        -1.223490
 C         3.427741         0.341727        -0.611412
 C         2.731862         0.452951         0.818780
 O         2.789941         1.046617         2.142538
 H         4.670835        -1.565616         2.001463
 H         4.501084        -2.519728         0.336641
 H         5.417768        -1.170340         0.433337
 H        -0.782304        -0.483964         0.345940
 H        -0.159965         1.028407         1.114117
 H        -0.322537         0.904522        -0.525812
 H         2.006347        -0.266470        -2.088474
 H         1.888439         1.453785        -1.418700
 H         4.417788         0.642559        -1.044153
 H         2.187400         1.784247         2.123412
