19
Iteration:  3310
 C         4.245266        -1.667513         1.215009
 C         3.148737        -0.893606         0.605179
 O         1.901976        -1.382911         0.228251
 C         1.424232        -0.053552         0.035291
 C        -0.001587        -0.062926         0.557695
 C         2.073033         0.337561        -1.293764
 C         3.477642         0.292928        -0.663962
 C         2.743395         0.563449         0.738009
 O         3.063765         1.403947         1.730401
 H         5.163338        -1.369862         0.767427
 H         4.172032        -1.623124         2.307100
 H         4.145549        -2.712067         1.002988
 H        -0.006226        -0.492580         1.539704
 H        -0.399644         0.932340         0.527457
 H        -0.539516        -0.749399        -0.002115
 H         1.893641        -0.375781        -2.088217
 H         1.823597         1.347595        -1.641080
 H         4.423357         0.693523        -0.957538
 H         3.310276         2.260647         1.309388
