19
Iteration:  3741charge 0 multiplicity 1
 C         4.470941        -1.615114         0.806940
 C         3.248663        -0.871596         0.525159
 O         1.964163        -1.435812         0.175186
 C         1.459718         0.012196         0.066457
 C         0.082536         0.183668         0.292114
 C         2.101179         0.497107        -1.216257
 C         3.435297         0.437394        -0.467468
 C         2.705763         0.404058         0.873015
 O         2.694604         0.968841         2.131947
 H         4.575185        -2.432714         0.063887
 H         5.267316        -0.996671         0.371029
 H         4.744288        -2.034024         1.749135
 H        -0.281038         1.129586        -0.223062
 H        -0.476137        -0.638485        -0.207094
 H        -0.197062         0.459805         1.370363
 H         2.021799        -0.124598        -2.135672
 H         1.620402         1.478599        -1.350069
 H         4.491019         0.590384        -0.908442
 H         2.405803         1.893846         2.239140
