19
Iteration:  2630charge 0 multiplicity 1
 C         4.356826        -1.695661         1.093816
 C         3.152432        -0.917247         0.487141
 O         1.906776        -1.433194         0.361576
 C         1.420110        -0.064611         0.076580
 C         0.155167         0.066834         0.787454
 C         2.059309         0.263316        -1.278731
 C         3.396674         0.297952        -0.646201
 C         2.715936         0.516029         0.618564
 O         2.940257         1.541244         1.529104
 H         4.584703        -1.262866         2.089931
 H         4.061512        -2.718740         1.203333
 H         5.315368        -1.724795         0.500565
 H         0.274182         0.206361         1.837604
 H        -0.531201         0.905005         0.655273
 H        -0.453728        -0.802385         0.670522
 H         2.006212        -0.484477        -2.066729
 H         1.839116         1.226532        -1.685172
 H         4.343958         0.711716        -1.019936
 H         2.693974         1.066311         2.312073
