19
Iteration:   683charge 0 multiplicity 1
 C         4.444643        -1.797140         0.799643
 C         3.315761        -0.889487         0.426467
 O         2.120621        -1.433871        -0.153016
 C         1.420324        -0.091436        -0.050898
 C        -0.016825        -0.161853         0.216123
 C         2.178380         0.880879        -0.955055
 C         3.499477         0.529345        -0.230174
 C         2.552435         0.333866         0.984873
 O         2.666834         1.240977         2.053488
 H         4.022804        -2.565297         1.409084
 H         4.908160        -2.234259        -0.081255
 H         5.255045        -1.444326         1.373288
 H        -0.596584         0.459935        -0.486556
 H        -0.377176        -1.197920         0.253906
 H        -0.197309         0.357069         1.216789
 H         2.035206         0.807335        -2.011638
 H         1.806013         1.881539        -0.542189
 H         4.462429         0.976792        -0.196088
 H         2.119873         0.836380         2.782827
