19
Iteration:  3316charge 0 multiplicity 1
 C         4.239920        -1.612971         1.198096
 C         3.126882        -0.824673         0.551762
 O         1.920250        -1.468992         0.239155
 C         1.446557        -0.021247         0.055347
 C         0.023113        -0.018241         0.549436
 C         2.071057         0.342037        -1.296046
 C         3.454641         0.260974        -0.613712
 C         2.718105         0.507424         0.729596
 O         3.060561         1.361464         1.713510
 H         5.231451        -1.308641         0.743499
 H         4.274726        -1.384466         2.287861
 H         4.193261        -2.748180         1.127083
 H         0.031753        -0.199197         1.693594
 H        -0.464157         0.982132         0.345339
 H        -0.690219        -0.756776        -0.041900
 H         1.952938        -0.275777        -2.229204
 H         1.761881         1.414269        -1.391076
 H         4.516999         0.618986        -0.832139
 H         3.301331         2.215954         1.383233
