19
Iteration:  2431
 C         4.388678        -1.652863         0.963912
 C         3.184632        -0.873851         0.584123
 O         1.899799        -1.535919         0.384535
 C         1.396189        -0.060057         0.065551
 C         0.053289         0.225603         0.665024
 C         2.036788         0.198886        -1.278093
 C         3.447471         0.259687        -0.638994
 C         2.760101         0.519359         0.706897
 O         2.994888         1.496181         1.650702
 H         4.343296        -2.059048         2.040417
 H         4.389220        -2.534904         0.283061
 H         5.290259        -1.011652         0.755087
 H        -0.007248         0.150588         1.748008
 H        -0.348611         1.175570         0.340003
 H        -0.812249        -0.422930         0.420975
 H         1.814040        -0.634467        -1.964020
 H         1.861681         1.141871        -1.823373
 H         4.333431         0.611727        -1.154572
 H         2.386420         1.262572         2.393825
