19
Iteration:   830charge 0 multiplicity 1
 C         4.348876        -1.764875         0.897642
 C         3.324705        -0.772075         0.381366
 O         2.099657        -1.372057        -0.068172
 C         1.461618        -0.072963         0.027202
 C         0.034637        -0.234314         0.302213
 C         2.210988         0.734185        -1.185439
 C         3.418670         0.652577        -0.302625
 C         2.652557         0.402127         0.904177
 O         2.557175         1.103935         2.142813
 H         3.849219        -2.468435         1.619227
 H         5.003253        -2.407170         0.174700
 H         5.171562        -1.145125         1.427991
 H        -0.200432         0.080860         1.394701
 H        -0.568271         0.442186        -0.425552
 H        -0.137717        -1.346299         0.137385
 H         1.940270         0.249511        -2.206647
 H         1.898966         1.808452        -1.208866
 H         4.414649         0.877753        -0.471809
 H         3.450981         1.305569         2.495744
