19
Iteration:   433
 C         4.502931        -1.667237         0.713364
 C         3.254647        -0.934375         0.393080
 O         2.107527        -1.382410        -0.283952
 C         1.489692         0.008366        -0.010589
 C        -0.054886         0.164624         0.292913
 C         2.290961         0.793783        -1.050117
 C         3.493642         0.456181        -0.297888
 C         2.531836         0.194519         1.115859
 O         2.452634         0.886713         2.303240
 H         4.360424        -2.161419         1.655142
 H         4.804512        -2.107861        -0.243042
 H         5.295537        -0.926783         0.880780
 H        -0.106789         1.235343         0.115657
 H        -0.483283        -0.550676        -0.363178
 H        -0.209090        -0.089788         1.370791
 H         2.274877         0.537305        -2.119071
 H         2.037373         1.817228        -1.051329
 H         4.525429         0.869398        -0.269425
 H         3.181485         1.538514         2.265242
