19
Iteration:   105
 C         4.430387        -1.714672         0.771529
 C         3.210170        -0.927074         0.460376
 O         1.966858        -1.416455        -0.238801
 C         1.411873        -0.057769        -0.026316
 C        -0.065370         0.067355         0.074672
 C         2.294800         0.854954        -1.006052
 C         3.473607         0.600827        -0.152553
 C         2.653186         0.299738         1.043431
 O         2.789720         0.931164         2.236342
 H         4.259568        -2.446026         1.577436
 H         4.937666        -2.189577        -0.094683
 H         5.183746        -0.925914         1.204998
 H        -0.574867         1.095683        -0.026994
 H        -0.591746        -0.575260        -0.694405
 H        -0.534771        -0.292056         1.060208
 H         2.439004         0.428982        -2.121980
 H         1.945414         1.943632        -0.989798
 H         4.499533         1.036127        -0.358331
 H         2.192778         0.639564         2.929429
