19
Iteration:  4552charge 0 multiplicity 1
 C         4.511529        -1.515895         1.028968
 C         3.231208        -0.824047         0.452698
 O         1.992565        -1.505636         0.167508
 C         1.472041        -0.089474        -0.062026
 C         0.039690         0.109775         0.365635
 C         2.063255         0.480071        -1.263069
 C         3.394762         0.414173        -0.551777
 C         2.628637         0.427042         0.849092
 O         2.832050         1.109640         2.026329
 H         4.517712        -2.531245         0.516727
 H         5.461540        -1.074844         0.949536
 H         4.401190        -1.447758         2.162485
 H        -0.722331         0.050089        -0.391094
 H        -0.385618        -0.634495         1.096691
 H         0.015722         1.094505         0.754881
 H         1.970338         0.147509        -2.277090
 H         1.670351         1.559292        -1.203177
 H         4.311451         0.863818        -0.790691
 H         2.240695         0.721211         2.669526
