19
Iteration:   314charge 0 multiplicity 1
 C         4.428664        -1.637391         0.828986
 C         3.159789        -0.887406         0.449917
 O         1.940090        -1.322732        -0.285312
 C         1.436554         0.008568        -0.063848
 C        -0.098141        -0.077649         0.093677
 C         2.323118         0.834544        -1.033661
 C         3.505485         0.484221        -0.179526
 C         2.616261         0.315204         1.042805
 O         2.722888         0.851936         2.324853
 H         4.399171        -2.429665         1.620743
 H         4.799230        -1.985774        -0.170215
 H         5.110839        -0.807896         1.234377
 H        -0.241461         0.833642         0.725056
 H        -0.618930        -0.056234        -0.979151
 H        -0.241203        -1.045039         0.736317
 H         2.489053         0.531588        -2.226748
 H         2.099113         1.881566        -1.022351
 H         4.465472         0.997770        -0.120423
 H         3.420750         1.557316         2.340202
