19
Iteration:   905charge 0 multiplicity 1
 C         4.566308        -1.551578         0.733084
 C         3.218849        -0.966283         0.538782
 O         2.052965        -1.457730        -0.049122
 C         1.372479        -0.061649        -0.021389
 C        -0.073120        -0.063910         0.305807
 C         2.292388         0.604550        -1.176508
 C         3.490191         0.425569        -0.208076
 C         2.608856         0.377421         0.971362
 O         2.530078         1.206166         2.112892
 H         4.648834        -2.406089         1.312094
 H         5.048309        -1.833146        -0.246408
 H         5.189825        -0.857527         1.275572
 H        -0.243582        -1.031710         0.871216
 H        -0.313794         0.854415         0.921566
 H        -0.600901         0.139808        -0.642525
 H         2.373900         0.263405        -2.152419
 H         1.876663         1.638744        -1.198574
 H         4.460364         0.708973        -0.401075
 H         3.269338         1.808959         1.957610
