19
Iteration:  3231charge 0 multiplicity 1
 C         4.597149        -1.727079         0.928858
 C         3.256794        -0.938568         0.560412
 O         1.816126        -1.469811         0.526675
 C         1.372931        -0.045410         0.093815
 C        -0.068821         0.265054         0.368634
 C         2.070080         0.183603        -1.297546
 C         3.341354         0.095198        -0.498803
 C         2.744984         0.494521         0.844512
 O         2.939629         1.553833         1.686481
 H         4.980369        -1.092891         1.740169
 H         4.589147        -2.678419         1.440344
 H         5.105881        -1.706129        -0.048051
 H        -0.499738        -0.534527         1.002477
 H        -0.130747         1.117889         0.997587
 H        -0.617814         0.460419        -0.525035
 H         1.871431        -0.430659        -2.176116
 H         1.972803         1.201291        -1.718569
 H         4.345653         0.493571        -0.830728
 H         3.274689         2.333346         1.149883
