19
Iteration:  3196
 C         4.382330        -1.581690         1.153253
 C         3.162929        -0.908803         0.508474
 O         1.970841        -1.536795         0.419056
 C         1.424689        -0.050556         0.066414
 C         0.121780         0.349390         0.530811
 C         1.959336         0.109066        -1.426429
 C         3.349830         0.216410        -0.658323
 C         2.754066         0.506908         0.731832
 O         2.899213         1.402444         1.769656
 H         4.953563        -0.837105         1.716559
 H         4.078854        -2.473147         1.650261
 H         5.202995        -1.873605         0.462557
 H        -0.240797        -0.405079         1.214555
 H         0.192465         1.329485         1.020195
 H        -0.676397         0.407544        -0.265348
 H         1.844208        -0.801634        -2.017518
 H         1.692866         1.059198        -1.858312
 H         4.249660         0.470818        -1.133674
 H         3.680661         2.019172         1.748999
