19
Iteration:  3190charge 0 multiplicity 1
 C         4.394643        -1.564357         1.194278
 C         3.267488        -0.932782         0.457969
 O         1.940364        -1.493349         0.418041
 C         1.438531        -0.078650         0.009626
 C         0.092956         0.348907         0.561238
 C         1.971128         0.105282        -1.416733
 C         3.308948         0.225261        -0.686945
 C         2.753744         0.474974         0.683817
 O         2.897087         1.412869         1.811168
 H         4.984178        -0.969924         1.954934
 H         3.838782        -2.380260         1.801987
 H         5.109240        -2.181080         0.584037
 H        -0.180523        -0.364391         1.391980
 H         0.240507         1.318205         1.057359
 H        -0.663581         0.339641        -0.183821
 H         1.825855        -0.715173        -2.152218
 H         1.533802         1.045590        -1.880484
 H         4.267697         0.707612        -1.147930
 H         3.675995         1.980187         1.694374
