19
Iteration:  4284charge 0 multiplicity 1
 C         4.359637        -1.687040         0.920126
 C         3.288756        -0.765765         0.476506
 O         2.000791        -1.456905         0.184913
 C         1.408863        -0.122755         0.097830
 C        -0.059726        -0.053180         0.388240
 C         2.192933         0.517775        -1.246409
 C         3.419063         0.383803        -0.485532
 C         2.698661         0.484987         0.851962
 O         2.843384         1.263132         1.952740
 H         4.049394        -2.771582         0.850530
 H         5.371775        -1.417362         0.433562
 H         4.524346        -1.507940         1.989745
 H        -0.621437        -0.695383        -0.269684
 H        -0.177579        -0.301801         1.403758
 H        -0.392443         1.033010         0.443994
 H         2.042248        -0.273533        -2.028605
 H         1.921215         1.539223        -1.527005
 H         4.457628         0.759319        -0.787584
 H         2.387863         2.079556         1.687880
