19
Iteration:  1300charge 0 multiplicity 1
 C         4.537486        -1.662526         0.841110
 C         3.230053        -0.853399         0.543054
 O         2.011573        -1.442421        -0.098579
 C         1.499423        -0.073840        -0.026300
 C         0.011623        -0.062515         0.429411
 C         2.272080         0.578198        -1.227184
 C         3.406890         0.531940        -0.282246
 C         2.563717         0.393621         0.938263
 O         2.545054         1.180379         2.054795
 H         4.390148        -2.696528         1.234101
 H         5.150772        -1.879966        -0.037627
 H         5.106609        -1.065791         1.549513
 H        -0.188000        -1.011021         0.877567
 H        -0.149517         0.715068         1.134474
 H        -0.655537         0.254132        -0.304376
 H         2.276240        -0.124462        -2.086295
 H         1.935739         1.550718        -1.615469
 H         4.429095         0.872496        -0.158194
 H         3.292680         1.796501         1.940176
