19
Iteration:  1540
 C         4.416980        -1.794778         0.971998
 C         3.411108        -0.812603         0.394232
 O         2.107514        -1.459308         0.046105
 C         1.491974        -0.175197         0.132925
 C         0.045977         0.063067         0.374070
 C         2.005730         0.533058        -1.206637
 C         3.394738         0.583395        -0.531721
 C         2.677398         0.377426         0.910995
 O         2.572718         1.243942         2.015725
 H         4.638359        -1.590100         2.055290
 H         4.024642        -2.747437         1.050470
 H         5.401035        -1.843619         0.533012
 H        -0.205429         0.006238         1.448383
 H        -0.043446         1.096828         0.015490
 H        -0.591052        -0.656246        -0.123269
 H         1.867751        -0.097689        -2.086375
 H         1.702040         1.538153        -1.376139
 H         4.304266         1.189988        -0.599975
 H         3.449934         1.693003         1.969225
