19
Iteration:  4264charge 0 multiplicity 1
 C         4.495348        -1.717029         0.868481
 C         3.275791        -0.871518         0.532831
 O         1.945595        -1.467402         0.310466
 C         1.487702        -0.103814         0.020350
 C        -0.070958         0.066896         0.248663
 C         2.036091         0.388961        -1.310483
 C         3.408161         0.511006        -0.510712
 C         2.724644         0.471105         0.876963
 O         2.880226         1.285854         2.083524
 H         4.254529        -2.702978         0.581784
 H         5.443086        -1.358854         0.332767
 H         4.809708        -1.706564         1.892460
 H        -0.445443        -0.902236        -0.215266
 H        -0.407924         0.181843         1.284831
 H        -0.468726         1.022091        -0.226912
 H         2.011599        -0.181687        -2.251066
 H         1.538937         1.309264        -1.396588
 H         4.461630         0.855190        -0.735802
 H         2.077923         1.878999         2.157777
