19
Iteration:   626charge 0 multiplicity 1
 C         4.422001        -1.686823         0.759238
 C         3.240625        -0.748795         0.467463
 O         2.055778        -1.333993        -0.054547
 C         1.458396        -0.044188        -0.063938
 C        -0.001235        -0.052320         0.270840
 C         2.313045         0.656773        -1.218417
 C         3.479481         0.570391        -0.319059
 C         2.632746         0.475605         0.924771
 O         2.525523         0.829031         2.338038
 H         4.068641        -2.486490         1.400067
 H         4.559372        -2.213171        -0.131503
 H         5.237810        -0.991739         1.050220
 H        -0.517006        -0.473928        -0.637595
 H        -0.232260        -0.691787         1.137290
 H        -0.241113         1.015230         0.544236
 H         2.393035         0.237906        -2.206529
 H         1.864638         1.687315        -1.393490
 H         4.495255         1.033584        -0.420609
 H         3.284747         1.347019         2.706191
