19
Iteration:  1565
 C         4.376562        -1.682513         0.895967
 C         3.313869        -0.755026         0.433884
 O         2.083943        -1.461880         0.127395
 C         1.423100        -0.115011         0.062157
 C        -0.073684         0.031870         0.307597
 C         2.065513         0.380739        -1.224509
 C         3.427552         0.574479        -0.520799
 C         2.724109         0.522844         0.903592
 O         2.728077         1.190326         2.122779
 H         4.594790        -1.662289         1.962592
 H         4.137171        -2.769692         0.859168
 H         5.361964        -1.494791         0.430742
 H        -0.448668        -0.698195         1.005511
 H        -0.324537         1.056219         0.525025
 H        -0.577580        -0.366264        -0.601790
 H         2.060114        -0.431160        -1.989674
 H         1.834526         1.385552        -1.617654
 H         4.415687         0.851790        -0.821719
 H         3.629668         1.429047         2.384141
