19
Iteration:  1476charge 0 multiplicity 1
 C         4.433501        -1.744362         0.899985
 C         3.227586        -0.832554         0.499899
 O         2.053295        -1.435603        -0.036922
 C         1.432547        -0.058115        -0.031381
 C        -0.029592        -0.117985         0.424750
 C         2.148444         0.529961        -1.267493
 C         3.458819         0.523695        -0.394748
 C         2.711517         0.479431         0.952243
 O         2.744806         1.251112         2.088744
 H         5.087022        -0.966714         1.380048
 H         4.032499        -2.414352         1.587350
 H         4.901376        -2.212393         0.044981
 H        -0.080206        -0.000170         1.493890
 H        -0.724324         0.610618         0.074435
 H        -0.467615        -1.050690         0.222318
 H         2.074684        -0.291556        -2.021202
 H         1.932920         1.502210        -1.657437
 H         4.501145         0.855937        -0.518087
 H         2.147497         1.998188         1.993085
