19
Iteration:  1691
 C         4.373169        -1.664632         0.942234
 C         3.268903        -0.866037         0.495926
 O         2.033058        -1.377222         0.132304
 C         1.489896         0.000486         0.049759
 C         0.147665        -0.082326         0.543900
 C         2.046597         0.442896        -1.354426
 C         3.443066         0.216441        -0.515459
 C         2.687748         0.479532         0.851646
 O         2.724528         1.412666         1.962414
 H         4.314445        -2.746872         0.694566
 H         5.230626        -1.178220         0.585291
 H         4.432327        -1.643974         2.041918
 H        -0.632438        -0.298945        -0.190079
 H         0.030208        -0.973515         1.162327
 H        -0.261914         0.784091         1.035993
 H         1.679833        -0.241807        -2.131162
 H         2.277001         1.470704        -1.565955
 H         4.317381         0.704239        -0.846357
 H         1.776217         1.687515         1.962207
