19
Iteration:   612
 C         4.366476        -1.592619         0.750238
 C         3.232036        -0.812567         0.463942
 O         2.035248        -1.414883         0.004350
 C         1.486603         0.036436        -0.095502
 C        -0.015406        -0.008604         0.257103
 C         2.320733         0.720956        -1.288172
 C         3.519312         0.634048        -0.321606
 C         2.600757         0.411236         1.011961
 O         2.565940         0.725464         2.323258
 H         4.327277        -2.230413         1.636397
 H         4.702065        -2.110171        -0.153430
 H         5.296809        -1.112433         1.048689
 H        -0.660998        -0.721357        -0.258276
 H         0.054483        -0.299141         1.316014
 H        -0.579022         0.890215         0.110660
 H         2.368506         0.110234        -2.193214
 H         2.064770         1.708065        -1.381566
 H         4.544950         0.916171        -0.540783
 H         2.890266         1.640147         2.275084
