19
Iteration:  1773charge 0 multiplicity 1
 C         4.451035        -1.515879         0.937254
 C         3.244258        -0.860231         0.433147
 O         1.941209        -1.403610         0.263884
 C         1.399909        -0.031099         0.074812
 C        -0.132449        -0.037776         0.389186
 C         2.060932         0.362830        -1.294698
 C         3.450486         0.289397        -0.551462
 C         2.752206         0.494542         0.820435
 O         2.874758         1.281871         2.037803
 H         5.213700        -1.176461         0.307533
 H         4.774820        -1.166825         1.996499
 H         4.235772        -2.562988         0.991265
 H        -0.463368        -0.790249        -0.362674
 H        -0.215750        -0.450287         1.453084
 H        -0.788766         0.866228         0.382231
 H         2.105595        -0.306142        -2.142230
 H         1.847002         1.317909        -1.803726
 H         4.463782         0.640957        -0.831015
 H         3.812823         1.595710         1.914123
