19
Iteration:  4977charge 0 multiplicity 1
 C         4.273469        -1.674090         0.991344
 C         3.287758        -0.761376         0.434894
 O         2.058499        -1.436640         0.001046
 C         1.465521        -0.089487        -0.026092
 C         0.044227        -0.036301         0.367664
 C         2.076327         0.554183        -1.240152
 C         3.423622         0.558818        -0.409948
 C         2.655005         0.429494         0.874930
 O         2.821700         1.145340         2.088410
 H         4.235680        -2.560832         0.335669
 H         5.227452        -1.182102         0.832765
 H         4.064985        -1.819230         2.085619
 H        -0.576699        -0.722281        -0.221276
 H        -0.096449        -0.427742         1.393453
 H        -0.384394         0.973208         0.250704
 H         1.778808         0.052514        -2.098321
 H         1.870346         1.594457        -1.403291
 H         4.405521         0.789587        -0.757256
 H         3.446129         0.631744         2.663702
