19
Iteration:   572charge 0 multiplicity 1
 C         4.433580        -1.714085         0.897108
 C         3.364880        -0.867730         0.339236
 O         2.136343        -1.427592        -0.233239
 C         1.436946        -0.089135         0.012993
 C        -0.059691         0.107005         0.164323
 C         2.089870         0.791579        -0.998061
 C         3.450861         0.557559        -0.341135
 C         2.672414         0.279676         1.042139
 O         2.700193         0.946439         2.248384
 H         4.004007        -2.155431         1.839017
 H         4.863015        -2.252838         0.040925
 H         5.365365        -1.040779         1.258677
 H        -0.600165        -0.888243         0.302097
 H        -0.329726         0.789222         1.003185
 H        -0.525760         0.652341        -0.758997
 H         1.870291         0.397283        -2.019073
 H         1.834453         1.994559        -1.043375
 H         4.463089         1.025780        -0.437607
 H         1.778384         0.824511         2.599329
