19
Iteration:  1523charge 0 multiplicity 1
 C         4.448974        -1.746839         0.986426
 C         3.293789        -0.897166         0.503261
 O         2.100376        -1.524174         0.019376
 C         1.449056        -0.116656        -0.045352
 C         0.073671         0.005276         0.472408
 C         2.116308         0.636095        -1.195001
 C         3.424525         0.463622        -0.416069
 C         2.701438         0.483764         0.809089
 O         2.562758         1.240555         1.974960
 H         4.779835        -1.446904         1.975140
 H         3.999334        -2.811263         0.977437
 H         5.237779        -1.678430         0.202935
 H         0.052360         0.118262         1.563711
 H        -0.467464         0.899080         0.136497
 H        -0.626244        -0.851805         0.305516
 H         1.987428         0.342965        -2.267857
 H         1.623805         1.614575        -0.914603
 H         4.358849         0.783453        -0.811952
 H         3.112934         2.062371         1.969622
