19
Iteration:  4713
 C         4.437523        -1.621019         0.982285
 C         3.266859        -0.867288         0.391330
 O         2.055922        -1.444913        -0.030283
 C         1.456695         0.003405        -0.000280
 C         0.019019         0.047821         0.391754
 C         2.092750         0.525218        -1.247144
 C         3.383564         0.453819        -0.429936
 C         2.697890         0.443712         0.855843
 O         2.722130         1.130157         2.104613
 H         4.885633        -2.339933         0.278150
 H         5.131173        -0.978368         1.508131
 H         4.005968        -2.110407         1.896062
 H        -0.460360        -0.860914        -0.076898
 H        -0.091962         0.082417         1.553161
 H        -0.457311         0.968986         0.112871
 H         1.904236        -0.117904        -2.135026
 H         1.863022         1.595547        -1.360463
 H         4.302107         0.876690        -0.676085
 H         2.980624         0.532795         2.803317
