19
Iteration:  1068charge 0 multiplicity 1
 C         4.526983        -1.780474         0.692410
 C         3.356865        -0.805530         0.468230
 O         2.057456        -1.394886         0.130866
 C         1.472413        -0.119304         0.104141
 C        -0.016588        -0.025952         0.124018
 C         2.167677         0.605056        -1.201921
 C         3.413857         0.516808        -0.314723
 C         2.624802         0.430340         1.019464
 O         2.584536         1.141776         2.223189
 H         3.979230        -2.656672         1.080817
 H         4.989646        -2.075596        -0.377404
 H         5.279699        -1.305893         1.403495
 H        -0.458330        -0.498007         1.052593
 H        -0.423110         0.979573        -0.080545
 H        -0.492126        -0.617146        -0.709516
 H         2.281603        -0.016491        -2.117727
 H         1.863402         1.701951        -1.602221
 H         4.346057         1.036887        -0.529411
 H         2.572347         2.084607         1.965386
