19
Iteration:  2584charge 0 multiplicity 1
 C         4.448784        -1.567816         1.064729
 C         3.281118        -0.817036         0.419590
 O         1.987904        -1.516926         0.427010
 C         1.423512        -0.078171         0.160203
 C        -0.040809         0.301260         0.476362
 C         1.828909         0.082692        -1.211595
 C         3.338500         0.229106        -0.676199
 C         2.790544         0.535715         0.709079
 O         3.050426         1.411028         1.691521
 H         4.323435        -1.577079         2.155537
 H         4.493973        -2.517210         0.629514
 H         5.388523        -1.079810         0.778804
 H        -0.353358         0.035648         1.537442
 H        -0.224428         1.400101         0.439291
 H        -0.777139        -0.246734        -0.183470
 H         1.428080        -0.653930        -1.914010
 H         1.474906         1.063662        -1.485021
 H         4.256928         0.521993        -1.230323
 H         3.301810         0.960830         2.493913
