19
Iteration:  3843
 C         4.290057        -1.723579         0.959271
 C         3.258007        -0.868945         0.454302
 O         1.994244        -1.423099        -0.018982
 C         1.374072        -0.052585         0.032413
 C        -0.074048        -0.182744         0.180248
 C         2.113450         0.665953        -1.127781
 C         3.427339         0.489174        -0.383652
 C         2.723035         0.442088         0.917272
 O         2.983914         1.222195         2.144371
 H         4.125395        -2.121096         1.930910
 H         4.571211        -2.549651         0.287391
 H         5.252677        -1.204505         1.049018
 H        -0.738435         0.468903        -0.496250
 H        -0.423052        -1.238648         0.028170
 H        -0.308995         0.004618         1.220539
 H         1.802793         0.368310        -2.116310
 H         1.898687         1.758621        -0.998025
 H         4.369976         0.896556        -0.532797
 H         3.224826         2.036113         1.668859
