19
Iteration:  3205charge 0 multiplicity 1
 C         4.392436        -1.574618         1.039590
 C         3.192170        -0.840505         0.605514
 O         1.918201        -1.551267         0.392064
 C         1.453645        -0.058673         0.111205
 C         0.063168         0.334329         0.503544
 C         2.022220         0.120317        -1.305272
 C         3.377315         0.171505        -0.645431
 C         2.759421         0.509871         0.713473
 O         2.884321         1.402218         1.736583
 H         4.711279        -0.859186         1.785962
 H         4.369759        -2.437892         1.662183
 H         4.991508        -1.642261         0.156281
 H        -0.386066        -0.369034         1.197418
 H         0.078787         1.333646         1.071919
 H        -0.563952         0.502768        -0.457736
 H         1.773726        -0.746580        -1.952389
 H         1.754639         0.996033        -1.877761
 H         4.374559         0.149729        -0.954587
 H         3.689683         1.945527         1.471124
