19
Iteration:  4736
 C         4.476577        -1.496450         0.893552
 C         3.275347        -0.748477         0.416563
 O         2.016776        -1.453040         0.116943
 C         1.425531        -0.107194         0.021758
 C        -0.050591         0.138621         0.264894
 C         2.132627         0.482452        -1.236280
 C         3.489433         0.389101        -0.582617
 C         2.630168         0.441926         0.930886
 O         2.713669         1.030887         2.226637
 H         4.397377        -2.283050         0.101929
 H         5.372110        -0.903567         0.903319
 H         4.441519        -1.858821         1.964870
 H        -0.621964        -0.392125        -0.533330
 H        -0.443115        -0.032595         1.394660
 H        -0.183767         1.195811         0.262702
 H         2.202348        -0.339944        -1.986012
 H         1.675398         1.466996        -1.571857
 H         4.464017         0.766022        -0.894906
 H         3.219467         0.372778         2.789372
