19
Iteration:  4431
 C         4.535829        -1.669230         0.773628
 C         3.207428        -0.882213         0.561116
 O         2.002215        -1.521567         0.228400
 C         1.380374        -0.134767         0.077719
 C        -0.065858         0.087861         0.181776
 C         2.027455         0.354487        -1.172176
 C         3.410108         0.445818        -0.405982
 C         2.718898         0.438402         0.938811
 O         2.937168         1.410691         1.993362
 H         4.875042        -1.696456        -0.270766
 H         5.183740        -1.004810         1.362586
 H         4.536320        -2.638184         1.381074
 H        -0.689293        -0.595103        -0.490840
 H        -0.532587         0.115869         1.274116
 H        -0.130776         1.129500        -0.150944
 H         1.802357        -0.387805        -1.940216
 H         1.558406         1.310763        -1.451855
 H         4.410595         0.798108        -0.879240
 H         2.157503         1.495498         2.597528
