19
Iteration:   774charge 0 multiplicity 1
 C         4.552610        -1.538366         0.931183
 C         3.328590        -0.875267         0.336050
 O         2.063913        -1.458777        -0.085315
 C         1.479084        -0.075295         0.040392
 C        -0.007896         0.071035         0.186449
 C         2.132549         0.629858        -1.125837
 C         3.399957         0.612236        -0.380803
 C         2.649611         0.302446         0.991633
 O         2.565073         0.872425         2.233231
 H         4.215747        -1.954922         1.906246
 H         4.874724        -2.302254         0.087401
 H         5.402206        -0.788408         1.102812
 H        -0.187059         1.103567         0.683245
 H        -0.461431         0.111504        -0.880862
 H        -0.489105        -0.703666         0.898225
 H         1.947346         0.081717        -2.168797
 H         1.812127         1.740072        -1.104385
 H         4.347828         1.191019        -0.448249
 H         2.819590         1.801510         2.239912
