19
Iteration:  3707charge 0 multiplicity 1
 C         4.453239        -1.701306         0.778419
 C         3.290824        -0.857010         0.433911
 O         1.989417        -1.450150         0.143993
 C         1.390217        -0.044103         0.040260
 C        -0.146245         0.089373         0.198753
 C         2.132416         0.455173        -1.190031
 C         3.411548         0.448178        -0.308978
 C         2.627248         0.484216         0.981122
 O         2.939389         1.144439         2.131721
 H         4.826810        -1.868549        -0.253475
 H         5.094597        -1.118556         1.398258
 H         4.175199        -2.605156         1.275609
 H        -0.213575         1.168694         0.259298
 H        -0.624548        -0.272470        -0.736865
 H        -0.562138        -0.547952         1.083334
 H         2.138864        -0.260018        -2.038734
 H         1.659284         1.377777        -1.476660
 H         4.360667         0.892952        -0.635146
 H         3.139258         2.063031         1.954860
