19
Iteration:  1076
 C         4.478071        -1.750698         0.619638
 C         3.327080        -0.764554         0.540303
 O         2.021605        -1.407556         0.156687
 C         1.517024        -0.046350         0.036167
 C        -0.036842        -0.043023         0.133123
 C         2.215494         0.526977        -1.240889
 C         3.440182         0.563943        -0.340381
 C         2.630921         0.448763         1.034538
 O         2.567979         1.117723         2.230635
 H         4.179436        -2.770602         0.983921
 H         5.033383        -1.914969        -0.325743
 H         5.254435        -1.555301         1.342001
 H        -0.240946        -0.384296         1.130765
 H        -0.448003         0.927831         0.002504
 H        -0.390006        -0.809425        -0.535788
 H         2.253649        -0.144362        -2.109388
 H         1.852705         1.530335        -1.506518
 H         4.436542         0.898161        -0.347367
 H         2.530252         2.078992         2.223297
