19
Iteration:   948
 C         4.449128        -1.633610         0.967817
 C         3.343012        -0.821697         0.394152
 O         2.128775        -1.490480         0.035492
 C         1.511409        -0.191625         0.020008
 C        -0.073467         0.061805         0.250011
 C         2.112776         0.614869        -1.181050
 C         3.380886         0.673455        -0.442115
 C         2.700671         0.454740         0.911538
 O         2.651899         0.938714         2.146301
 H         4.233124        -1.974943         1.942976
 H         4.821180        -2.541332         0.381212
 H         5.305706        -0.961757         1.153333
 H        -0.448931        -0.948195         0.586727
 H        -0.395397         0.785700         1.050803
 H        -0.496476         0.613833        -0.628390
 H         2.121596        -0.000538        -2.065144
 H         1.646475         1.651268        -1.400445
 H         4.322511         1.004797        -0.684973
 H         2.076210         1.729444         2.141269
