19
Iteration:  1175charge 0 multiplicity 1
 C         4.365093        -1.608523         1.096782
 C         3.260281        -0.900425         0.341341
 O         2.055414        -1.430913        -0.145994
 C         1.499693        -0.115572        -0.014395
 C        -0.082691        -0.198949         0.261474
 C         2.131623         0.828165        -1.143861
 C         3.433287         0.625951        -0.375596
 C         2.661201         0.357467         0.940047
 O         2.772683         0.993938         2.118612
 H         4.015433        -1.752001         2.103454
 H         4.637310        -2.619901         0.696268
 H         5.353916        -1.175596         1.269513
 H        -0.199049         0.257614         1.255375
 H        -0.689011         0.497379        -0.303770
 H        -0.468878        -1.217746         0.197703
 H         1.999706         0.672003        -2.213833
 H         2.005700         1.872054        -0.831883
 H         4.378039         1.215913        -0.489408
 H         3.258141         1.810055         1.904645
