19
Iteration:  4832charge 0 multiplicity 1
 C         4.291982        -1.940794         0.959105
 C         3.257606        -0.910778         0.368154
 O         2.074634        -1.408808        -0.006980
 C         1.456323        -0.066185         0.014101
 C         0.040529        -0.230468         0.436477
 C         2.168039         0.780863        -1.144081
 C         3.488979         0.530079        -0.380966
 C         2.641470         0.443939         0.911290
 O         2.766665         1.461646         1.888577
 H         4.534480        -2.650493         0.126445
 H         5.236560        -1.433718         1.372929
 H         3.882099        -2.368675         1.937359
 H        -0.652219        -0.400497        -0.413250
 H        -0.014787        -1.295473         0.899376
 H        -0.376525         0.420295         1.205255
 H         1.983667         0.320229        -2.121466
 H         1.659572         1.726073        -1.043833
 H         4.468389         1.045764        -0.311263
 H         2.449623         0.966767         2.686740
