19
Iteration:   963
 C         4.365760        -1.656649         1.071705
 C         3.402793        -0.675074         0.387758
 O         2.141184        -1.435850         0.055234
 C         1.443514        -0.076473         0.023883
 C        -0.001893        -0.047391         0.260252
 C         2.074428         0.567709        -1.275289
 C         3.423586         0.697638        -0.497104
 C         2.666531         0.446376         0.848897
 O         2.729546         0.858596         2.201525
 H         3.801943        -1.968218         1.972604
 H         4.289888        -2.444126         0.365223
 H         5.417671        -1.341491         1.171435
 H        -0.604724        -0.957086         0.437789
 H        -0.094774         0.611650         1.186098
 H        -0.551811         0.256975        -0.640983
 H         2.053427        -0.013013        -2.203216
 H         1.623341         1.505950        -1.391734
 H         4.329699         1.355521        -0.792304
 H         2.084034         1.586565         2.377164
