19
Iteration:  3071charge 0 multiplicity 1
 C         4.386307        -1.816184         0.906810
 C         3.282226        -0.840214         0.566388
 O         1.968088        -1.419127         0.595084
 C         1.430694        -0.102786         0.187482
 C        -0.089726         0.129422         0.211383
 C         1.961357         0.113975        -1.200580
 C         3.379651         0.280294        -0.677113
 C         2.835034         0.595042         0.798700
 O         2.970555         1.587288         1.815040
 H         5.225411        -1.555172         0.355568
 H         4.595352        -1.959520         1.963271
 H         4.003840        -2.729130         0.542469
 H        -0.574429         0.611571         1.111699
 H        -0.413926         0.892669        -0.517308
 H        -0.532447        -0.842812         0.007913
 H         1.596702        -0.656561        -1.855174
 H         1.479658         0.938004        -1.681690
 H         4.313371         0.691180        -1.164773
 H         3.831393         2.054060         1.607807
