19
Iteration:   665charge 0 multiplicity 1
 C         4.417370        -1.844526         0.819599
 C         3.342286        -0.858964         0.389979
 O         2.154976        -1.442912        -0.186149
 C         1.528239        -0.164060         0.039724
 C        -0.052970        -0.028844         0.196811
 C         2.105065         0.849091        -0.982320
 C         3.421744         0.570019        -0.228148
 C         2.692777         0.311901         1.025181
 O         2.552526         1.203403         2.067286
 H         4.058067        -2.675578         1.499402
 H         5.028281        -2.319919        -0.052092
 H         5.272343        -1.281123         1.283631
 H        -0.508563         0.293983        -0.747872
 H        -0.623190        -0.978591         0.371411
 H        -0.327596         0.569089         1.084333
 H         2.007152         0.675732        -2.136174
 H         1.825385         1.898578        -0.765098
 H         4.307546         1.197993        -0.239485
 H         2.949435         0.874246         2.894721
