19
Iteration:   236charge 0 multiplicity 1
 C         4.421927        -1.814011         0.703663
 C         3.288121        -0.876759         0.377330
 O         2.002900        -1.324073        -0.216276
 C         1.562937        -0.001081        -0.042638
 C         0.044759         0.027944         0.330789
 C         2.294932         0.783666        -1.128189
 C         3.546490         0.570892        -0.206967
 C         2.669343         0.354264         1.006368
 O         2.446374         0.933419         2.318418
 H         4.015981        -2.540541         1.406961
 H         4.762889        -2.376710        -0.189000
 H         5.220830        -1.150098         1.237835
 H        -0.249718         0.987275         0.845918
 H        -0.408117        -0.016680        -0.709451
 H         0.028531        -0.920362         0.986228
 H         2.261111         0.215852        -2.150497
 H         2.043097         1.776435        -1.204878
 H         4.475045         1.035650        -0.118013
 H         1.481566         1.136855         2.206716
