19
Iteration:  3875charge 0 multiplicity 1
 C         4.430800        -1.704393         0.737708
 C         3.271727        -0.817891         0.494891
 O         1.991582        -1.441311         0.232977
 C         1.420319        -0.105040         0.088134
 C        -0.179105        -0.001241        -0.006835
 C         2.112160         0.457822        -1.212137
 C         3.394653         0.563320        -0.351056
 C         2.689995         0.482570         0.977805
 O         2.988472         1.152216         2.212808
 H         4.578761        -1.968631         1.772001
 H         4.295181        -2.689953         0.214561
 H         5.374526        -1.217124         0.457783
 H        -0.617450         1.051810        -0.353251
 H        -0.605453        -0.834594        -0.662179
 H        -0.681793        -0.215553         0.950337
 H         2.067808        -0.150972        -2.113439
 H         1.893650         1.529964        -1.408774
 H         4.339244         0.956906        -0.545395
 H         2.759272         2.096681         2.261392
