19
Iteration:  3288
 C         4.224494        -1.893798         1.178841
 C         3.291132        -0.821978         0.496550
 O         1.989351        -1.386565         0.331417
 C         1.429689         0.040495         0.059029
 C        -0.070399        -0.108762         0.490037
 C         2.005698         0.240639        -1.398249
 C         3.354430         0.306823        -0.639320
 C         2.791368         0.655411         0.849397
 O         3.084102         1.574466         1.775509
 H         5.256002        -1.622104         1.262538
 H         3.673933        -2.170126         2.095114
 H         4.261963        -2.819915         0.639325
 H        -0.098552        -0.913525         1.207487
 H        -0.449556         0.808352         0.877423
 H        -0.643333        -0.457198        -0.296432
 H         1.982893        -0.551934        -2.120912
 H         1.752355         1.214115        -1.828951
 H         4.401195         0.501127        -0.891976
 H         3.144361         2.435748         1.340779
