19
Iteration:  1482
 C         4.476277        -1.713056         0.877183
 C         3.190269        -0.870103         0.451228
 O         1.974794        -1.398916        -0.068573
 C         1.454766        -0.021655         0.024245
 C        -0.020754        -0.154159         0.465297
 C         2.210686         0.486346        -1.229275
 C         3.472375         0.505231        -0.352423
 C         2.697123         0.490745         0.907744
 O         2.714585         1.262381         2.047470
 H         4.949300        -0.957821         1.505157
 H         4.019304        -2.533989         1.570638
 H         5.112505        -2.225237         0.114284
 H         0.118809         0.105656         1.567662
 H        -0.824848         0.591993         0.134282
 H        -0.408352        -1.212546         0.217057
 H         2.264462        -0.225616        -2.046186
 H         2.042439         1.553870        -1.555456
 H         4.545175         0.807122        -0.420113
 H         2.145176         2.042336         1.945779
