19
Iteration:  1804
 C         4.360625        -1.665115         1.072009
 C         3.227670        -0.868545         0.500051
 O         2.017071        -1.480572         0.222290
 C         1.458560        -0.149172         0.079664
 C        -0.044777        -0.057703         0.413803
 C         1.934389         0.493959        -1.254371
 C         3.404226         0.430512        -0.588517
 C         2.750909         0.542562         0.773774
 O         2.915375         1.342660         1.911458
 H         5.287754        -1.189710         0.875508
 H         4.233428        -1.901234         2.110345
 H         4.412770        -2.576288         0.487761
 H        -0.312837        -1.079054         0.240375
 H        -0.119417         0.067428         1.476214
 H        -0.561521         0.574585        -0.276504
 H         1.954069        -0.045817        -2.174835
 H         1.656520         1.516908        -1.369159
 H         4.367643         0.905111        -0.920279
 H         3.824290         1.658148         1.884338
