19
Iteration:  1003charge 0 multiplicity 1
 C         4.278553        -1.520561         1.110910
 C         3.243415        -0.774413         0.371945
 O         2.012832        -1.376523        -0.145415
 C         1.415776        -0.021616        -0.084151
 C        -0.093972        -0.284937         0.351758
 C         2.225312         0.710046        -1.213337
 C         3.474377         0.558688        -0.383618
 C         2.694508         0.420203         0.878947
 O         2.843208         0.965872         2.202041
 H         4.092466        -1.798318         2.128402
 H         4.541036        -2.634569         0.744876
 H         5.327358        -1.111643         1.164522
 H        -0.031432        -1.421136         0.497183
 H        -0.366666         0.343305         1.251982
 H        -0.672127        -0.313337        -0.637769
 H         2.108061         0.189738        -2.168402
 H         1.769691         1.797274        -1.412613
 H         4.411774         1.002542        -0.513199
 H         3.031239         1.904850         2.073507
