19
Iteration:  3061charge 0 multiplicity 1
 C         4.389515        -1.763758         0.896320
 C         3.264410        -0.831464         0.559723
 O         1.998350        -1.369945         0.601442
 C         1.389449        -0.030188         0.185168
 C        -0.091881         0.149029         0.304596
 C         2.019606         0.124159        -1.268524
 C         3.324794         0.230466        -0.616071
 C         2.785148         0.506982         0.820024
 O         2.936577         1.562677         1.718583
 H         5.302493        -1.521876         0.448655
 H         4.666810        -2.044689         1.916662
 H         4.119122        -2.631588         0.356541
 H        -0.442055         0.363512         1.363474
 H        -0.187847         0.846590        -0.557087
 H        -0.618003        -0.728371        -0.095464
 H         2.034637        -0.818730        -1.854165
 H         1.691535         1.062338        -1.680428
 H         4.366249         0.493472        -1.029161
 H         3.896230         1.727627         1.880351
