19
Iteration:  2747charge 0 multiplicity 1
 C         4.467841        -1.505689         1.002813
 C         3.214559        -0.879184         0.515129
 O         1.913761        -1.416357         0.516602
 C         1.335859        -0.018629         0.035366
 C        -0.046077         0.077065         0.471003
 C         1.970400         0.117967        -1.322481
 C         3.292214         0.314208        -0.622965
 C         2.719895         0.466501         0.753357
 O         3.170225         1.441442         1.687261
 H         5.316585        -1.261273         0.318621
 H         4.771447        -1.441010         2.089784
 H         4.361191        -2.629985         0.927646
 H        -0.165276        -0.661030         1.353369
 H        -0.153632         1.113070         0.955420
 H        -0.741500        -0.163114        -0.415534
 H         1.630908        -0.848995        -1.817203
 H         1.714416         0.997449        -1.945527
 H         4.291902         0.622523        -0.901397
 H         2.942645         1.453316         2.612111
