19
Iteration:   721
 C         4.423398        -1.742348         0.754124
 C         3.270825        -0.801554         0.404188
 O         2.029277        -1.335038        -0.124199
 C         1.474764         0.000411        -0.062391
 C        -0.034179        -0.203828         0.238311
 C         2.251887         0.660738        -1.124576
 C         3.486302         0.608987        -0.281244
 C         2.638885         0.511627         1.034126
 O         2.685885         1.040434         2.293599
 H         4.008120        -2.588122         1.402765
 H         4.661068        -2.311143        -0.246019
 H         5.186822        -1.126124         1.371721
 H        -0.739435         0.521640        -0.269117
 H        -0.169441        -1.245650        -0.158406
 H        -0.349151        -0.234214         1.303959
 H         2.375555        -0.119304        -2.028562
 H         1.839323         1.622106        -1.493769
 H         4.540122         0.949174        -0.367419
 H         1.830662         1.284343         2.656366
