19
Iteration:  1384charge 0 multiplicity 1
 C         4.402215        -1.536077         0.960882
 C         3.206328        -0.839331         0.483247
 O         2.007541        -1.485922        -0.018223
 C         1.416541        -0.162048        -0.078304
 C        -0.105270        -0.111052         0.315934
 C         2.235934         0.635099        -1.248334
 C         3.389361         0.523552        -0.301861
 C         2.622487         0.407983         0.948087
 O         2.937379         1.118207         2.079526
 H         4.871603        -2.003898         0.114151
 H         4.849284        -0.571534         1.415016
 H         4.182242        -2.231979         1.813498
 H        -0.507478        -1.129317         0.693908
 H        -0.397637         0.539823         1.191080
 H        -0.727925         0.004366        -0.653397
 H         2.332460         0.054059        -2.139351
 H         1.997463         1.737463        -1.371577
 H         4.371562         0.857874        -0.476751
 H         2.667590         2.037521         1.905249
