19
Iteration:  2165charge 0 multiplicity 1
 C         4.286841        -1.624795         1.159710
 C         3.203040        -0.888337         0.426998
 O         1.882154        -1.434975         0.294039
 C         1.366446        -0.033686         0.089190
 C        -0.113065        -0.045012         0.626345
 C         2.048576         0.385002        -1.346704
 C         3.357308         0.180803        -0.587030
 C         2.790944         0.483111         0.805491
 O         3.251287         1.451268         1.701194
 H         4.660952        -1.005464         1.977225
 H         3.908797        -2.688773         1.162336
 H         5.023650        -1.619930         0.313390
 H        -0.218122        -0.902962         1.268241
 H        -0.445397         0.916925         1.020042
 H        -0.739905        -0.267693        -0.216445
 H         1.791548        -0.084619        -2.320648
 H         1.947439         1.478326        -1.336090
 H         4.376051         0.569538        -0.703118
 H         3.052624         2.297313         1.251380
