19
Iteration:   287
 C         4.436446        -1.777295         0.737529
 C         3.322789        -0.803146         0.360651
 O         2.088625        -1.412538        -0.136410
 C         1.492817        -0.004703         0.031990
 C        -0.007299         0.116069         0.114674
 C         2.227225         0.748652        -1.094076
 C         3.437723         0.625833        -0.251862
 C         2.623218         0.278451         1.056632
 O         2.512357         0.830105         2.359598
 H         4.083960        -2.611122         1.345437
 H         4.749592        -2.187202        -0.212628
 H         5.210521        -1.208530         1.239139
 H        -0.129210         0.888416         0.865197
 H        -0.331018         0.464265        -0.809494
 H        -0.349171        -0.805663         0.476948
 H         2.275819         0.219269        -2.020437
 H         2.034314         1.873842        -1.322843
 H         4.424808         1.131295        -0.411174
 H         2.775763         1.771581         2.250972
