19
Iteration:  2854
 C         4.437759        -1.790638         0.913236
 C         3.274168        -0.820402         0.590779
 O         1.943974        -1.378674         0.393133
 C         1.434227        -0.058552         0.153534
 C         0.116627         0.082803         0.555835
 C         1.963174         0.159256        -1.279749
 C         3.369304         0.180594        -0.607963
 C         2.694406         0.574888         0.772881
 O         2.873911         1.554914         1.704011
 H         5.464696        -1.363785         0.761153
 H         4.336350        -1.975952         2.029173
 H         4.317302        -2.668432         0.224566
 H         0.103142         0.387105         1.622738
 H        -0.395795         0.853295         0.027203
 H        -0.487109        -0.797902         0.487043
 H         1.746386        -0.650202        -2.038575
 H         1.623357         1.098301        -1.765550
 H         4.345364         0.423457        -0.969144
 H         3.147343         2.386710         1.319068
