19
Iteration:  3351charge 0 multiplicity 1
 C         4.500294        -1.531708         1.220293
 C         3.321956        -0.893260         0.480516
 O         1.891560        -1.507733         0.217111
 C         1.385765        -0.092824         0.111669
 C        -0.029652         0.302480         0.401221
 C         1.976281         0.250069        -1.284478
 C         3.372166         0.256253        -0.684403
 C         2.775871         0.452939         0.754640
 O         2.949952         1.204349         1.898299
 H         5.387738        -1.496792         0.553542
 H         4.759687        -0.774876         1.984880
 H         4.321953        -2.521191         1.670685
 H        -0.068463         1.039946         1.321130
 H        -0.304447         0.992688        -0.416697
 H        -0.834563        -0.510058         0.573868
 H         1.676676        -0.291208        -2.190920
 H         1.481811         1.246809        -1.412547
 H         4.361148         0.579134        -1.039677
 H         2.889343         2.084290         1.544288
