19
Iteration:  1776charge 0 multiplicity 1
 C         4.443073        -1.518756         0.953360
 C         3.244160        -0.858853         0.423120
 O         1.928808        -1.372661         0.292973
 C         1.412431        -0.055714         0.061825
 C        -0.132382        -0.039565         0.403743
 C         2.065136         0.388730        -1.312636
 C         3.462960         0.313254        -0.545408
 C         2.720732         0.472712         0.848665
 O         2.885983         1.267428         2.001093
 H         5.288373        -1.153904         0.288778
 H         4.734855        -1.214205         2.044968
 H         4.277022        -2.639864         0.933899
 H        -0.348659        -0.896554        -0.302691
 H        -0.123491        -0.492759         1.451168
 H        -0.833508         0.845141         0.264428
 H         2.025417        -0.344232        -2.193054
 H         1.897179         1.415125        -1.805827
 H         4.415423         0.629453        -0.853460
 H         3.794023         1.557366         1.911945
