19
Iteration:   479charge 0 multiplicity 1
 C         4.386654        -1.842343         0.683578
 C         3.358098        -0.873393         0.372127
 O         2.088126        -1.404389        -0.044952
 C         1.528469        -0.034618         0.026964
 C         0.025888         0.054869         0.230175
 C         2.214417         0.830335        -1.109263
 C         3.442677         0.715234        -0.227977
 C         2.671222         0.364803         0.985315
 O         2.443442         0.874074         2.237343
 H         3.893605        -2.537477         1.288280
 H         4.732176        -2.101476        -0.294935
 H         5.153944        -1.399520         1.168525
 H        -0.233032         0.750984         0.990548
 H        -0.397711         0.257414        -0.740493
 H        -0.195547        -0.945555         0.499389
 H         2.152004         0.419541        -2.155715
 H         1.856933         1.773877        -1.142672
 H         4.470451         1.139504        -0.458834
 H         3.288240         0.981863         2.671750
