19
Iteration:  2690
 C         4.401649        -1.775771         0.927789
 C         3.281315        -0.869011         0.531882
 O         2.017570        -1.415241         0.494728
 C         1.457188        -0.124389         0.213674
 C        -0.076222         0.058045         0.480870
 C         1.932934         0.274370        -1.224348
 C         3.272451         0.325267        -0.602828
 C         2.793819         0.478273         0.809896
 O         3.030597         1.620823         1.500322
 H         5.277719        -1.479719         1.565494
 H         3.751266        -2.345635         1.748063
 H         4.715338        -2.483386         0.120467
 H        -0.306533        -0.228364         1.534901
 H        -0.251874         1.027661         0.039611
 H        -0.347578        -0.767124        -0.228896
 H         1.738382        -0.486367        -2.048111
 H         1.417079         1.253769        -1.497133
 H         4.324525         0.639510        -0.854110
 H         2.926702         1.633724         2.480609
