19
Iteration:  2541charge 0 multiplicity 1
 C         4.434657        -1.531414         0.906816
 C         3.183734        -0.823801         0.625897
 O         1.870030        -1.417985         0.504682
 C         1.338926        -0.084844         0.124163
 C        -0.106588         0.125739         0.422351
 C         1.978775         0.158397        -1.260233
 C         3.329958         0.098037        -0.625074
 C         2.738911         0.540641         0.724675
 O         3.261052         1.503636         1.661884
 H         4.181493        -2.397772         1.587262
 H         4.850401        -1.789202        -0.033118
 H         5.171167        -0.828975         1.375977
 H         0.011847        -0.521355         1.298258
 H        -0.225576         1.105507         0.854137
 H        -0.835422        -0.312674        -0.259629
 H         1.711697        -0.635410        -1.972482
 H         1.712966         1.104963        -1.692052
 H         4.361367         0.334644        -0.932133
 H         2.952269         1.226143         2.513885
