19
Iteration:  2340
 C         4.283733        -1.685187         1.058806
 C         3.181014        -0.835760         0.531043
 O         1.877955        -1.380138         0.362069
 C         1.376871        -0.011640         0.061653
 C        -0.006821        -0.004588         0.602228
 C         2.002072         0.244873        -1.306577
 C         3.394723         0.251900        -0.625909
 C         2.756811         0.523464         0.757685
 O         3.192916         1.517760         1.629744
 H         3.959377        -2.003300         2.077342
 H         4.295382        -2.672030         0.501259
 H         5.198223        -1.109275         1.073691
 H        -0.021940        -0.840794         1.386396
 H        -0.420430         0.936577         1.059358
 H        -0.600943        -0.332401        -0.293837
 H         1.762954        -0.483044        -2.099020
 H         1.692348         1.243545        -1.650896
 H         4.397138         0.498408        -0.985244
 H         3.513040         1.219557         2.534421
