19
Iteration:  4840charge 0 multiplicity 1
 C         4.245535        -1.931260         0.906612
 C         3.299949        -0.871131         0.434004
 O         2.067886        -1.402833        -0.012088
 C         1.504914        -0.092866         0.056128
 C         0.041913        -0.306774         0.467754
 C         2.153233         0.800426        -1.176680
 C         3.483379         0.496616        -0.419467
 C         2.676397         0.421969         0.911363
 O         2.727672         1.466729         1.907538
 H         4.691910        -2.715653         0.342518
 H         5.112126        -1.461036         1.494152
 H         3.582991        -2.408834         1.614552
 H        -0.539125        -0.273222        -0.454553
 H        -0.072036        -1.178661         0.995175
 H        -0.312140         0.661187         0.932024
 H         1.934710         0.533351        -2.257130
 H         1.803911         1.852023        -1.108962
 H         4.404747         1.010197        -0.463180
 H         2.570207         1.203976         2.837531
