19
Iteration:  2604
 C         4.396935        -1.630855         1.118262
 C         3.265562        -0.833011         0.444391
 O         2.029266        -1.525060         0.359336
 C         1.461874        -0.142565         0.190060
 C         0.069631         0.219815         0.628214
 C         1.894280         0.261320        -1.386556
 C         3.262272         0.150473        -0.745060
 C         2.734797         0.519433         0.721482
 O         2.988711         1.512662         1.696262
 H         4.456804        -1.367703         2.172329
 H         4.171431        -2.700558         1.044181
 H         5.395929        -1.435800         0.768665
 H        -0.139196         0.341689         1.782502
 H        -0.195160         1.276369         0.419738
 H        -0.843501        -0.399163         0.299134
 H         1.671304        -0.519044        -2.143826
 H         1.722075         1.270978        -1.798615
 H         4.156325         0.591100        -1.199288
 H         3.063517         1.047293         2.534721
