19
Iteration:  1464
 C         4.346337        -1.699101         0.932787
 C         3.329661        -0.773305         0.501189
 O         2.144087        -1.450251         0.063351
 C         1.445705        -0.113847        -0.005581
 C        -0.027916        -0.071950         0.349400
 C         2.098442         0.541179        -1.292266
 C         3.374801         0.517050        -0.438843
 C         2.643849         0.454213         0.909004
 O         2.788502         1.198001         2.151272
 H         5.372997        -1.367829         1.197421
 H         4.113577        -2.389122         1.670565
 H         4.501224        -2.320274         0.059187
 H        -0.135436        -0.024428         1.412930
 H        -0.404803         0.790274        -0.168585
 H        -0.467765        -0.931966        -0.089935
 H         2.092350        -0.036247        -2.237196
 H         1.639516         1.500740        -1.474436
 H         4.334371         0.988763        -0.814809
 H         2.273101         2.012942         1.980105
