19
Iteration:  3386
 C         4.366162        -1.584454         0.926566
 C         3.245755        -0.763717         0.463427
 O         1.897481        -1.430804         0.438927
 C         1.477808        -0.132076         0.043808
 C        -0.061141         0.248286         0.404685
 C         2.141219         0.128592        -1.435363
 C         3.455020         0.333166        -0.630273
 C         2.756066         0.537140         0.752870
 O         2.885314         1.200890         2.074273
 H         4.669498        -2.259561         0.141089
 H         5.153247        -0.853801         1.249590
 H         4.118569        -2.159748         1.782762
 H         0.079621         1.198280         0.994139
 H        -0.737744         0.365573        -0.474173
 H        -0.451526        -0.501207         1.059839
 H         2.019256        -0.658715        -2.152353
 H         1.811867         1.147125        -1.711814
 H         4.420467         0.512469        -0.984601
 H         2.587736         2.118183         2.014909
