19
Iteration:  1254
 C         4.572342        -1.698677         0.869211
 C         3.315595        -0.828854         0.465007
 O         2.046156        -1.442142         0.109062
 C         1.486365        -0.132946         0.071891
 C         0.001164         0.002789         0.130716
 C         2.051015         0.661631        -1.149636
 C         3.396401         0.572120        -0.381547
 C         2.700688         0.377761         0.958454
 O         2.668571         1.024177         2.134877
 H         4.477735        -2.112379         1.839750
 H         4.401428        -2.602834         0.189606
 H         5.352643        -0.960266         0.662554
 H        -0.545498        -0.492864         0.922636
 H        -0.416418         0.990597        -0.002438
 H        -0.368840        -0.312024        -0.846470
 H         1.906090         0.358407        -2.172025
 H         1.584950         1.711351        -1.123542
 H         4.272731         1.168141        -0.421295
 H         2.386443         1.918490         1.920954
