19
Iteration:  3814
 C         4.231673        -1.785949         1.098746
 C         3.340019        -0.826101         0.374536
 O         2.026680        -1.379612        -0.124836
 C         1.424157        -0.047721         0.038825
 C        -0.026841        -0.191212         0.448306
 C         2.154586         0.736890        -1.199027
 C         3.445084         0.519838        -0.439964
 C         2.711495         0.400392         0.849869
 O         2.829963         1.158407         2.058087
 H         3.487646        -2.514457         1.588931
 H         4.913514        -2.334136         0.451266
 H         4.764638        -1.243562         1.926801
 H        -0.694985         0.372884        -0.090659
 H        -0.295526        -1.247224         0.487222
 H        -0.015049         0.238106         1.464369
 H         1.855266         0.320555        -2.172571
 H         2.010718         1.829882        -1.163719
 H         4.444221         0.968355        -0.675427
 H         3.228462         1.912828         1.616236
