19
Iteration:  2823charge 0 multiplicity 1
 C         4.342618        -1.674421         1.079258
 C         3.202569        -0.893775         0.541050
 O         1.949449        -1.478845         0.324582
 C         1.359770        -0.115169         0.092261
 C         0.001608         0.038878         0.779613
 C         2.058722         0.312372        -1.348954
 C         3.490293         0.326798        -0.678969
 C         2.780668         0.512785         0.658785
 O         2.864616         1.528359         1.581800
 H         5.319799        -1.315892         0.618693
 H         4.340376        -1.387584         2.246555
 H         4.244770        -2.807425         1.217861
 H         0.357620        -0.147561         1.822056
 H        -0.362744         1.084141         0.666773
 H        -0.828279        -0.685225         0.696252
 H         2.013146        -0.539938        -2.101507
 H         1.584754         1.274334        -1.592806
 H         4.466011         0.285326        -1.061532
 H         3.762737         1.804814         1.921526
