19
Iteration:  2873charge 0 multiplicity 1
 C         4.417935        -1.771012         0.898211
 C         3.315577        -0.892271         0.530160
 O         2.035223        -1.487428         0.493891
 C         1.406273        -0.066739         0.223398
 C        -0.162950         0.196653         0.479704
 C         1.974797         0.127710        -1.257349
 C         3.384120         0.252645        -0.633720
 C         2.891159         0.549763         0.758696
 O         2.948374         1.598420         1.732018
 H         5.317415        -1.204570         1.026085
 H         4.210586        -2.348966         1.743143
 H         4.546603        -2.385204         0.023285
 H        -0.470849         0.451271         1.517440
 H        -0.548472         0.865877        -0.293201
 H        -0.728372        -0.737853         0.316337
 H         1.808680        -0.650315        -1.996501
 H         1.587952         1.103112        -1.609394
 H         4.252828         0.516931        -1.302459
 H         2.342032         2.298171         1.414117
