19
Iteration:  1117charge 0 multiplicity 1
 C         4.481079        -1.694031         0.716203
 C         3.246319        -0.793860         0.466028
 O         2.021233        -1.434193         0.044064
 C         1.457529        -0.040790        -0.041999
 C        -0.013132        -0.009554         0.329880
 C         2.343579         0.517896        -1.327055
 C         3.449940         0.604444        -0.218068
 C         2.586287         0.444286         0.959214
 O         2.606516         1.060084         2.231846
 H         4.111017        -2.701099         0.920081
 H         4.968348        -1.797829        -0.153592
 H         5.138006        -1.307182         1.423542
 H        -0.136649         0.144375         1.395926
 H        -0.612314         0.658676        -0.310611
 H        -0.448977        -1.015610         0.201349
 H         2.337396        -0.191779        -2.195798
 H         1.971624         1.409980        -1.628314
 H         4.484160         0.909317        -0.286315
 H         2.285274         1.973093         2.047970
