19
Iteration:   401
 C         4.347278        -1.826135         0.754965
 C         3.235442        -0.791634         0.404063
 O         1.979463        -1.323552        -0.131831
 C         1.477657         0.019258        -0.092869
 C         0.031639        -0.073620         0.227502
 C         2.318115         0.814793        -1.117143
 C         3.523146         0.727071        -0.239935
 C         2.621813         0.428761         0.983690
 O         2.657193         0.745884         2.330428
 H         3.957579        -2.578186         1.434687
 H         4.678044        -2.473244        -0.107039
 H         5.140500        -1.233021         1.171388
 H        -0.661895         0.668730        -0.213976
 H        -0.412626        -0.955689        -0.259998
 H         0.005175        -0.013126         1.344376
 H         2.540138         0.331193        -2.185781
 H         1.845638         1.762523        -1.106117
 H         4.591525         0.999083        -0.418994
 H         2.230827         1.586269         2.553129
