19
Iteration:  2164
 C         4.284231        -1.623113         1.155578
 C         3.210408        -0.886867         0.429597
 O         1.868192        -1.428651         0.295459
 C         1.363676        -0.039267         0.088442
 C        -0.105042        -0.053058         0.633061
 C         2.054977         0.387289        -1.350875
 C         3.361035         0.184386        -0.591337
 C         2.790934         0.484140         0.795973
 O         3.252159         1.451485         1.703964
 H         4.666824        -1.040089         1.992391
 H         3.885134        -2.657210         1.187410
 H         5.039487        -1.661955         0.326256
 H        -0.232075        -0.917244         1.255834
 H        -0.450424         0.917982         1.048497
 H        -0.734733        -0.275460        -0.230114
 H         1.794538        -0.096792        -2.313238
 H         1.921072         1.454426        -1.348299
 H         4.387012         0.592324        -0.666421
 H         3.048732         2.315463         1.259079
