19
Iteration:   655
 C         4.435707        -1.791716         0.791263
 C         3.362326        -0.924952         0.350375
 O         2.169051        -1.413629        -0.161453
 C         1.425136        -0.051795         0.055905
 C        -0.006840        -0.021713         0.218803
 C         2.157775         0.771590        -1.042529
 C         3.409833         0.637891        -0.305890
 C         2.677485         0.270896         1.061969
 O         2.509692         1.145307         2.162260
 H         3.964067        -2.507316         1.545886
 H         4.810543        -2.401534        -0.113434
 H         5.231214        -1.333344         1.439193
 H        -0.358735         0.339913        -0.760676
 H        -0.294148        -1.053152         0.477287
 H        -0.363239         0.818732         0.770918
 H         2.151820         0.301798        -2.080696
 H         1.640766         1.696135        -0.928285
 H         4.375641         1.152723        -0.357936
 H         3.205094         1.035472         2.861128
