19
Iteration:  1465charge 0 multiplicity 1
 C         4.344970        -1.700408         0.931002
 C         3.327258        -0.783786         0.506477
 O         2.138721        -1.450992         0.052160
 C         1.438970        -0.107259        -0.015670
 C        -0.030049        -0.072534         0.359822
 C         2.103811         0.546282        -1.292291
 C         3.385389         0.517502        -0.433609
 C         2.652044         0.453541         0.915214
 O         2.785531         1.206668         2.149142
 H         5.360884        -1.349487         1.218150
 H         4.133384        -2.395544         1.666167
 H         4.546876        -2.294881         0.037654
 H        -0.141122        -0.050601         1.418486
 H        -0.424688         0.765981        -0.160239
 H        -0.465104        -0.949007        -0.034200
 H         2.068889        -0.074399        -2.230586
 H         1.648325         1.494157        -1.528575
 H         4.331907         0.966055        -0.796835
 H         2.254883         1.995497         1.974889
