19
Iteration:  1884charge 0 multiplicity 1
 C         4.449358        -1.653621         0.827591
 C         3.231268        -0.819816         0.471625
 O         1.944594        -1.472722         0.286227
 C         1.462296        -0.022379         0.060093
 C         0.048434         0.074839         0.563132
 C         2.142224         0.297380        -1.309726
 C         3.478353         0.251446        -0.534044
 C         2.643230         0.530193         0.784436
 O         2.777866         1.334960         1.956198
 H         4.709521        -1.734384         1.874001
 H         4.279957        -2.728363         0.578452
 H         5.387326        -1.434295         0.336221
 H        -0.364308        -0.642896         1.317104
 H        -0.210244         1.132021         0.891916
 H        -0.700507         0.176723        -0.266836
 H         2.010777        -0.221224        -2.240804
 H         1.975043         1.396480        -1.411742
 H         4.438566         0.687129        -0.740147
 H         2.217541         2.112225         1.858989
