19
Iteration:  3024charge 0 multiplicity 1
 C         4.369303        -1.654753         1.049235
 C         3.186897        -0.921852         0.590916
 O         1.903344        -1.459949         0.386207
 C         1.426653        -0.074965         0.052139
 C         0.086123         0.154541         0.620136
 C         2.047482         0.164739        -1.351076
 C         3.363849         0.139041        -0.601566
 C         2.792459         0.518772         0.749358
 O         2.932705         1.639352         1.601714
 H         5.122294        -0.858353         1.259802
 H         4.225274        -2.205967         1.957291
 H         4.713137        -2.302581         0.234537
 H         0.109594        -0.051543         1.680605
 H        -0.046451         1.222363         0.688045
 H        -0.784565        -0.317563         0.169117
 H         2.062246        -0.516651        -2.178821
 H         1.838853         1.122640        -1.844230
 H         4.276132         0.208485        -1.122694
 H         2.597556         1.370459         2.461591
