19
Iteration:  2993
 C         4.288676        -1.676106         1.341864
 C         3.321535        -0.906895         0.439414
 O         1.984413        -1.501976         0.274490
 C         1.426609        -0.158613         0.106142
 C         0.070805         0.216553         0.743430
 C         1.915812         0.239352        -1.254809
 C         3.394999         0.258826        -0.740871
 C         2.833082         0.495157         0.637373
 O         2.956783         1.474073         1.536311
 H         4.788047        -1.054354         2.025355
 H         3.794350        -2.339590         1.975661
 H         5.041780        -2.150433         0.793870
 H         0.025614        -0.440758         1.689329
 H         0.201071         1.286053         0.942068
 H        -0.875099         0.153904         0.185564
 H         1.807638        -0.415344        -2.098193
 H         1.703156         1.270197        -1.536076
 H         4.055330         0.863539        -1.277363
 H         2.156333         2.087678         1.469399
