19
Iteration:  2389charge 0 multiplicity 1
 C         4.460724        -1.573487         0.990070
 C         3.267194        -0.896883         0.427393
 O         1.880437        -1.525316         0.500005
 C         1.431771        -0.004679         0.284193
 C        -0.019539         0.276245         0.307017
 C         1.925386         0.165682        -1.202780
 C         3.267703         0.290457        -0.699034
 C         2.811403         0.473637         0.743620
 O         3.061821         1.382806         1.752832
 H         4.557071        -1.557731         2.126169
 H         4.344215        -2.610769         0.684269
 H         5.332945        -1.043313         0.482865
 H        -0.341584        -0.071784         1.249040
 H        -0.230346         1.338127         0.301464
 H        -0.547491        -0.237843        -0.495539
 H         1.614795        -0.711017        -1.815813
 H         1.523296         1.105854        -1.644597
 H         4.150893         0.658315        -1.202090
 H         3.551138         1.079925         2.496603
