19
Iteration:  1630charge 0 multiplicity 1
 C         4.453877        -1.669414         1.013697
 C         3.341678        -0.846582         0.488641
 O         2.067413        -1.490304         0.075409
 C         1.430649        -0.190415         0.082104
 C        -0.072659         0.025981         0.268530
 C         1.963141         0.462331        -1.189398
 C         3.335792         0.436868        -0.460750
 C         2.696310         0.452952         0.901404
 O         2.907120         1.410112         1.929566
 H         3.968628        -2.421565         1.692714
 H         5.086112        -2.297400         0.302646
 H         5.049250        -1.000144         1.664269
 H        -0.481882        -0.989859         0.142267
 H        -0.166565         0.451724         1.281041
 H        -0.460196         0.744876        -0.485301
 H         1.637949        -0.077039        -2.107007
 H         1.779612         1.540178        -1.320745
 H         4.284234         0.837177        -0.834463
 H         2.696047         0.878648         2.757657
