19
Iteration:  3666charge 0 multiplicity 1
 C         4.256030        -1.899965         0.935778
 C         3.289349        -0.836934         0.372660
 O         2.004663        -1.385201         0.118043
 C         1.335537        -0.085531         0.006566
 C        -0.077289        -0.206008         0.263062
 C         2.121363         0.721899        -1.123747
 C         3.449875         0.482108        -0.464711
 C         2.694317         0.474653         0.906664
 O         3.019155         1.318141         2.064407
 H         5.330039        -1.892574         0.686541
 H         4.279085        -1.683585         2.074293
 H         3.897268        -2.925847         0.996264
 H        -0.487962         0.392118         1.126281
 H        -0.663571        -0.090401        -0.653715
 H        -0.160925        -1.294511         0.619559
 H         1.883200         0.370969        -2.173443
 H         1.834545         1.785772        -0.956268
 H         4.513208         0.821808        -0.663125
 H         3.134596         2.230588         1.697573
