19
Iteration:   968
 C         4.326163        -1.648989         1.088459
 C         3.395205        -0.681773         0.350948
 O         2.153996        -1.380783         0.051254
 C         1.497136        -0.070734        -0.061614
 C         0.014995        -0.087362         0.297104
 C         2.074683         0.543638        -1.267286
 C         3.402168         0.656285        -0.520573
 C         2.631024         0.511096         0.887971
 O         2.753636         0.842647         2.211528
 H         3.764721        -1.917724         2.020745
 H         4.184059        -2.504687         0.341212
 H         5.373864        -1.400923         1.219998
 H        -0.385082        -1.085491         0.510842
 H        -0.368171         0.553985         1.067993
 H        -0.508665         0.343876        -0.570603
 H         2.026879        -0.086783        -2.199358
 H         1.611674         1.598247        -1.383976
 H         4.259893         1.302411        -0.591460
 H         2.201108         1.573704         2.508426
