19
Iteration:  1289
 C         4.495545        -1.581858         0.783898
 C         3.249276        -0.945771         0.517415
 O         2.089948        -1.490347        -0.116861
 C         1.409781        -0.123055        -0.015036
 C        -0.073794         0.051562         0.365108
 C         2.238598         0.573575        -1.247364
 C         3.469266         0.455784        -0.234438
 C         2.622840         0.328217         1.006147
 O         2.566114         1.239206         2.121630
 H         4.465957        -2.367424         1.575650
 H         4.998655        -1.840960        -0.137328
 H         5.127279        -0.806805         1.216813
 H        -0.240604        -0.894932         0.848890
 H        -0.173869         0.760718         1.140444
 H        -0.736264         0.023925        -0.437144
 H         2.281448        -0.021845        -2.179516
 H         1.956862         1.634077        -1.384094
 H         4.448402         0.916871        -0.341154
 H         3.189911         1.943006         1.941765
