19
Iteration:  3003charge 0 multiplicity 1
 C         4.334457        -1.653459         1.249579
 C         3.331077        -0.877800         0.449588
 O         1.941179        -1.512664         0.297545
 C         1.429133        -0.076052         0.132826
 C         0.115589         0.216137         0.751383
 C         1.959277         0.200170        -1.314595
 C         3.446900         0.198853        -0.662595
 C         2.692359         0.458374         0.641091
 O         2.954234         1.516096         1.524535
 H         4.938720        -0.980933         1.836508
 H         3.764199        -2.294321         1.852406
 H         4.923119        -2.265141         0.602060
 H        -0.083783        -0.229148         1.737544
 H         0.024695         1.270724         0.998422
 H        -0.684981        -0.043766         0.055720
 H         1.768282        -0.474062        -2.129599
 H         1.657244         1.210173        -1.622573
 H         4.339948         0.727652        -0.867760
 H         2.095044         1.866747         1.828952
