19
Iteration:  1507
 C         4.419534        -1.654679         0.905210
 C         3.201378        -0.860002         0.475173
 O         2.005742        -1.468637         0.031493
 C         1.473205        -0.054808        -0.022145
 C         0.051154        -0.104257         0.571402
 C         2.255772         0.706485        -1.277313
 C         3.505546         0.353764        -0.440227
 C         2.631178         0.346965         0.925023
 O         2.582409         1.254323         1.972926
 H         4.779348        -1.146928         1.843674
 H         4.163697        -2.649287         1.077243
 H         5.193971        -1.675231         0.132868
 H         0.146185         0.091532         1.661494
 H        -0.669275         0.628144         0.168912
 H        -0.361222        -1.073530         0.322094
 H         2.119274         0.250251        -2.260792
 H         2.207354         1.763329        -1.370343
 H         4.573676         0.721911        -0.429721
 H         2.738281         2.149611         1.564513
