19
Iteration:   476charge 0 multiplicity 1
 C         4.392099        -1.843702         0.689965
 C         3.362650        -0.905192         0.358163
 O         2.092769        -1.407309        -0.045132
 C         1.516678        -0.064385         0.039922
 C         0.052360         0.086133         0.229417
 C         2.214355         0.842184        -1.107484
 C         3.433211         0.726729        -0.230003
 C         2.659666         0.325022         0.990042
 O         2.434249         0.879320         2.214734
 H         3.937354        -2.551228         1.402385
 H         4.801726        -2.046223        -0.326187
 H         5.274476        -1.320552         1.182515
 H        -0.309976         0.896148         0.919811
 H        -0.344514         0.321552        -0.750535
 H        -0.278824        -0.940802         0.614460
 H         2.187620         0.469117        -2.085670
 H         1.726876         1.846396        -1.088116
 H         4.436011         1.204796        -0.432081
 H         3.319734         0.996163         2.642538
