19
Iteration:  3626charge 0 multiplicity 1
 C         4.256678        -1.872416         1.041048
 C         3.275562        -0.838994         0.440933
 O         1.975692        -1.419236        -0.065612
 C         1.501535        -0.019069         0.042467
 C         0.031401        -0.068914         0.406561
 C         2.055846         0.561870        -1.232554
 C         3.369588         0.543375        -0.440113
 C         2.735758         0.468117         0.904584
 O         2.923008         1.226745         2.027782
 H         5.074035        -1.308116         1.464266
 H         3.708115        -2.231330         1.936406
 H         4.596515        -2.595671         0.297413
 H         0.031805         0.189387         1.500263
 H        -0.754821         0.483206        -0.084468
 H        -0.177510        -1.085818         0.398979
 H         2.051046         0.065873        -2.174402
 H         1.795484         1.629869        -1.396740
 H         4.407150         0.913495        -0.705900
 H         2.940676         2.169886         1.837249
