19
Iteration:  3457
 C         4.305491        -1.977259         1.080309
 C         3.246050        -0.935912         0.429933
 O         2.037315        -1.455814         0.175618
 C         1.370891        -0.114011         0.077181
 C        -0.064127        -0.117671         0.355383
 C         2.005934         0.673413        -1.155046
 C         3.414635         0.411052        -0.414793
 C         2.812601         0.432161         0.901832
 O         2.938841         1.566597         1.708100
 H         3.770688        -2.919280         1.270884
 H         5.218347        -2.022741         0.508484
 H         4.555150        -1.589587         2.111745
 H        -0.568613         0.422369        -0.355236
 H        -0.306348        -1.147293         0.391630
 H        -0.200998         0.235697         1.403345
 H         1.795562         0.554090        -2.244448
 H         1.800355         1.662484        -0.797412
 H         4.390665         0.876156        -0.584213
 H         3.595579         2.137528         1.280520
