19
Iteration:  1911charge 0 multiplicity 1
 C         4.462053        -1.713925         0.921702
 C         3.306544        -0.822779         0.485281
 O         2.010043        -1.484452         0.263139
 C         1.482920        -0.068908         0.126187
 C         0.012797         0.186226         0.416225
 C         1.947235         0.280334        -1.276255
 C         3.333957         0.480166        -0.632970
 C         2.743083         0.502070         0.840227
 O         2.861077         1.222544         1.998115
 H         4.238332        -2.077190         1.975536
 H         4.783545        -2.583968         0.375789
 H         5.420502        -1.165232         1.075654
 H        -0.498448        -0.024653         1.331261
 H        -0.217713         1.192342         0.185651
 H        -0.645581        -0.187599        -0.347094
 H         1.891201        -0.581370        -2.003912
 H         1.398708         1.114196        -1.697849
 H         4.370837         0.693172        -0.942667
 H         2.627440         2.128193         1.739891
