19
Iteration:  1346charge 0 multiplicity 1
 C         4.297860        -1.781174         1.000333
 C         3.427580        -0.751288         0.393805
 O         2.213044        -1.380261         0.016745
 C         1.501864        -0.133335         0.100767
 C         0.037712        -0.115444         0.328611
 C         1.998947         0.621833        -1.164369
 C         3.477165         0.511027        -0.517547
 C         2.703453         0.509592         0.874967
 O         2.550073         1.125590         2.133990
 H         4.030888        -2.769027         0.504751
 H         5.309158        -1.842385         0.719638
 H         4.214056        -1.907181         2.076469
 H        -0.288763        -1.130256         0.487877
 H        -0.281866         0.596733         1.077630
 H        -0.412428         0.320511        -0.558571
 H         1.799497         0.173147        -2.207823
 H         1.763653         1.660592        -1.256311
 H         4.316960         0.981903        -1.130624
 H         2.773264         2.094153         2.110912
