19
Iteration:  2816
 C         4.380336        -1.641070         1.179370
 C         3.223713        -0.925475         0.518914
 O         1.929721        -1.448795         0.261059
 C         1.442276        -0.097805         0.064047
 C         0.015407         0.022852         0.818984
 C         1.990530         0.300399        -1.331245
 C         3.434912         0.304958        -0.650046
 C         2.790537         0.517104         0.657055
 O         2.860734         1.524148         1.565750
 H         5.340447        -1.507033         0.738897
 H         4.451414        -1.403868         2.186089
 H         4.182984        -2.690604         1.252628
 H         0.174956        -0.114143         1.884092
 H        -0.115508         1.130068         0.691508
 H        -0.779466        -0.630417         0.356044
 H         1.825666        -0.428733        -2.116165
 H         1.593248         1.286294        -1.574185
 H         4.360969         0.360610        -1.268097
 H         3.744181         1.468502         1.948978
