19
Iteration:  3619charge 0 multiplicity 1
 C         4.264306        -1.791339         1.042190
 C         3.286105        -0.847791         0.387458
 O         1.962278        -1.421875        -0.039919
 C         1.478582        -0.053842        -0.003085
 C         0.052111        -0.015331         0.438769
 C         2.097245         0.548233        -1.293067
 C         3.354381         0.513013        -0.412730
 C         2.738227         0.452979         0.908829
 O         2.906877         1.216114         2.073124
 H         5.139473        -1.327635         1.531412
 H         3.817121        -2.513463         1.708352
 H         4.706701        -2.511404         0.348348
 H         0.058886         0.173993         1.502152
 H        -0.669223         0.727319        -0.036010
 H        -0.461270        -1.067065         0.457877
 H         2.086791        -0.134907        -2.178726
 H         1.762271         1.565905        -1.413239
 H         4.232004         1.010925        -0.678501
 H         2.937394         2.136981         1.830660
