19
Iteration:   267
 C         4.388048        -1.870358         0.658852
 C         3.352330        -0.761471         0.467914
 O         2.165478        -1.412012        -0.046391
 C         1.544431        -0.137327        -0.055518
 C         0.039541         0.172078         0.212491
 C         2.205134         0.724976        -1.097903
 C         3.486067         0.698870        -0.214102
 C         2.627232         0.426960         0.921052
 O         2.459710         0.790712         2.288564
 H         3.935626        -2.648188         1.269730
 H         4.639727        -2.290303        -0.318852
 H         5.288956        -1.572803         1.334347
 H        -0.052526         1.021930         0.968597
 H        -0.420110         0.478874        -0.775897
 H        -0.619617        -0.712051         0.582665
 H         2.072229         0.463534        -2.277325
 H         1.784038         1.856422        -0.997252
 H         4.478399         1.117287        -0.231245
 H         1.945289         1.605870         2.292733
