19
Iteration:  4057
 C         4.545591        -1.648233         0.824806
 C         3.278339        -0.850745         0.407570
 O         1.986873        -1.515615         0.360106
 C         1.370899        -0.159025         0.026162
 C        -0.127306         0.195775         0.110895
 C         2.045563         0.474395        -1.205544
 C         3.355063         0.377474        -0.447668
 C         2.727323         0.438135         0.980952
 O         2.944433         1.191639         2.117233
 H         4.751477        -2.537219         0.287510
 H         5.318153        -0.812673         0.577277
 H         4.524702        -1.618527         1.894491
 H        -0.558717         0.495040         1.074045
 H        -0.566818         0.833970        -0.621788
 H        -0.617933        -0.784941        -0.040513
 H         1.975906        -0.160341        -2.162875
 H         1.736842         1.484444        -1.479807
 H         4.254109         0.674810        -0.902565
 H         2.705366         2.102155         1.819816
