19
Iteration:  3642charge 0 multiplicity 1
 C         4.156633        -1.843681         1.046045
 C         3.243894        -0.854027         0.448867
 O         2.080210        -1.350797         0.012608
 C         1.440207        -0.007798         0.061950
 C        -0.043093        -0.217527         0.414663
 C         2.086336         0.733389        -1.154209
 C         3.496862         0.484911        -0.493091
 C         2.752626         0.449846         0.845079
 O         2.944208         1.237637         1.975229
 H         5.243315        -1.603388         1.061581
 H         3.917962        -2.297704         2.015666
 H         4.103886        -2.792320         0.493601
 H        -0.468683         0.143391         1.341917
 H        -0.580372         0.245069        -0.463726
 H        -0.365657        -1.364635         0.449383
 H         1.768793         0.158951        -2.076917
 H         1.770820         1.772916        -1.096865
 H         4.447570         0.878921        -0.774761
 H         2.946296         2.174172         1.639802
