19
Iteration:   233
 C         4.416643        -1.805936         0.717048
 C         3.292442        -0.884780         0.354803
 O         1.989267        -1.311406        -0.239660
 C         1.527939         0.010227        -0.029295
 C         0.064350         0.007194         0.330523
 C         2.298564         0.752099        -1.128578
 C         3.546029         0.562821        -0.187717
 C         2.662847         0.370398         1.013787
 O         2.457291         0.937442         2.307837
 H         4.056370        -2.541484         1.459765
 H         4.865295        -2.334046        -0.144979
 H         5.184798        -1.153957         1.133621
 H        -0.263297         0.978691         0.800226
 H        -0.416752        -0.104993        -0.634791
 H        -0.021826        -0.870851         0.969399
 H         2.259880         0.235537        -2.146282
 H         2.139263         1.941529        -1.128025
 H         4.606954         0.993543        -0.077217
 H         1.498335         1.130727         2.259195
