19
Iteration:  3732charge 0 multiplicity 1
 C         4.519157        -1.645193         0.735551
 C         3.215714        -0.905229         0.518105
 O         1.944373        -1.441847         0.217801
 C         1.494295        -0.102181         0.037798
 C        -0.010097         0.224290         0.257979
 C         2.143828         0.511318        -1.240305
 C         3.429408         0.463289        -0.481012
 C         2.666444         0.438342         0.930670
 O         2.754502         1.012933         2.199153
 H         4.612620        -2.377439        -0.050798
 H         5.268085        -0.781802         0.767436
 H         4.553022        -2.006022         1.770530
 H        -0.170413         1.225928        -0.293208
 H        -0.499211        -0.609960        -0.283024
 H        -0.344994         0.056976         1.304685
 H         2.003533        -0.131476        -2.138219
 H         1.601237         1.486060        -1.400361
 H         4.444642         0.649630        -0.992032
 H         2.606785         1.961373         1.984884
