19
Iteration:   747charge 0 multiplicity 1
 C         4.423943        -1.668983         0.803558
 C         3.312395        -0.751244         0.441823
 O         2.158218        -1.405833         0.061239
 C         1.494990        -0.112592        -0.044290
 C        -0.023908        -0.044438         0.182473
 C         2.162627         0.673317        -1.237634
 C         3.420887         0.666216        -0.399519
 C         2.611312         0.451579         0.996292
 O         2.663917         0.856303         2.282956
 H         3.995781        -2.349627         1.520875
 H         4.498707        -2.184053        -0.062084
 H         5.274408        -1.230820         1.216174
 H        -0.151207         0.988653         0.041216
 H        -0.582898        -0.557247        -0.559429
 H        -0.404638        -0.262311         1.135379
 H         2.170484         0.116911        -2.085072
 H         1.707764         1.619432        -1.394735
 H         4.377847         1.126253        -0.348127
 H         1.905780         1.389292         2.552281
