19
Iteration:   382charge 0 multiplicity 1
 C         4.183215        -1.861207         0.845486
 C         3.344766        -0.732919         0.368091
 O         2.176527        -1.321170        -0.131331
 C         1.506602         0.004091         0.015150
 C        -0.047771        -0.079515         0.144213
 C         2.167891         0.869059        -1.169491
 C         3.429710         0.666378        -0.303838
 C         2.719924         0.411605         1.019138
 O         2.745012         0.760916         2.370073
 H         3.422973        -2.581979         1.294810
 H         4.423392        -2.258104        -0.180831
 H         5.029992        -1.654749         1.396613
 H        -0.452052         0.782925        -0.409869
 H        -0.273500        -1.016477        -0.474264
 H        -0.279939        -0.086999         1.174923
 H         2.115931         0.307979        -2.227770
 H         1.960256         1.935269        -1.257193
 H         4.418280         1.285267        -0.257247
 H         2.015532         1.355233         2.533420
