19
Iteration:  3502charge 0 multiplicity 1
 C         4.306542        -1.801193         0.960000
 C         3.227952        -0.860471         0.452577
 O         1.927130        -1.419361         0.123378
 C         1.413538        -0.071964         0.002792
 C        -0.050927        -0.078541         0.413454
 C         2.126367         0.465037        -1.295203
 C         3.417480         0.411433        -0.495757
 C         2.776421         0.537094         0.881715
 O         2.972804         1.363620         2.045600
 H         3.725411        -2.283183         1.769422
 H         4.920252        -2.251098         0.169663
 H         4.936099        -1.133764         1.604513
 H        -0.661135        -0.524235        -0.312520
 H        -0.103802        -0.594789         1.338842
 H        -0.454943         0.919292         0.717503
 H         1.944518        -0.386655        -1.987159
 H         1.728221         1.428965        -1.581879
 H         4.345606         0.752614        -0.807539
 H         3.379834         2.189365         1.779240
