19
Iteration:  3445charge 0 multiplicity 1
 C         4.288627        -1.901882         1.038750
 C         3.314452        -1.021071         0.440212
 O         1.990636        -1.519526         0.139126
 C         1.446492        -0.148815         0.122144
 C        -0.093436        -0.079394         0.365883
 C         2.102450         0.598050        -1.111506
 C         3.416904         0.421232        -0.466716
 C         2.732172         0.528921         0.913842
 O         2.927180         1.603673         1.789224
 H         3.982960        -2.956988         0.931843
 H         5.193023        -1.900484         0.453309
 H         4.549867        -1.654161         2.097801
 H        -0.512567         0.755102        -0.078287
 H        -0.747394        -0.873706         0.085324
 H        -0.248870         0.172004         1.429864
 H         1.772209         0.222716        -2.118234
 H         1.859804         1.648483        -1.145361
 H         4.423024         0.594443        -0.922991
 H         3.319887         2.323676         1.212189
