19
Iteration:  1908
 C         4.458220        -1.721778         0.906122
 C         3.300465        -0.790794         0.493687
 O         2.005670        -1.471673         0.258638
 C         1.497048        -0.076837         0.114379
 C        -0.002219         0.192118         0.415392
 C         1.970649         0.291393        -1.272589
 C         3.329079         0.454846        -0.623266
 C         2.775956         0.478780         0.853782
 O         2.839575         1.226543         1.984542
 H         4.360706        -1.989035         1.986144
 H         4.744211        -2.629137         0.422433
 H         5.422843        -1.158397         0.991581
 H        -0.436100        -0.183374         1.420860
 H        -0.293079         1.243443         0.269491
 H        -0.727755        -0.107635        -0.346593
 H         1.887952        -0.614590        -1.853818
 H         1.429763         1.129463        -1.752122
 H         4.379122         0.635882        -0.951274
 H         2.527989         2.099092         1.707734
