19
Iteration:  2388charge 0 multiplicity 1
 C         4.458679        -1.567808         0.990694
 C         3.267000        -0.892451         0.434850
 O         1.877234        -1.519086         0.495186
 C         1.428255        -0.006580         0.283983
 C        -0.020261         0.273257         0.305259
 C         1.934271         0.161032        -1.195592
 C         3.268404         0.291564        -0.701010
 C         2.821938         0.469390         0.740126
 O         3.064093         1.381139         1.752892
 H         4.551268        -1.555349         2.143889
 H         4.315165        -2.620164         0.662743
 H         5.311579        -1.037460         0.468449
 H        -0.359590        -0.098301         1.250645
 H        -0.274371         1.321972         0.305555
 H        -0.599307        -0.218592        -0.492883
 H         1.649993        -0.703041        -1.825729
 H         1.477895         1.101067        -1.615858
 H         4.156176         0.635527        -1.223135
 H         3.578311         1.082275         2.490905
