19
Iteration:  4358charge 0 multiplicity 1
 C         4.323195        -1.666311         1.109303
 C         3.336328        -0.762719         0.388671
 O         2.068429        -1.437434         0.123367
 C         1.439901        -0.094218         0.049739
 C         0.074113        -0.039366         0.500155
 C         2.033162         0.504212        -1.270134
 C         3.439545         0.353737        -0.660739
 C         2.696774         0.424983         0.830498
 O         2.714690         1.345320         1.948077
 H         4.278948        -2.700061         0.600543
 H         5.313523        -1.313586         1.274526
 H         3.915047        -1.779999         2.120371
 H        -0.592834         0.079745        -0.325725
 H        -0.170733        -0.912491         1.087434
 H         0.019883         0.799337         1.253195
 H         1.796983        -0.181925        -2.096811
 H         1.659628         1.563136        -1.459371
 H         4.453762         0.771731        -0.985491
 H         3.442921         0.950867         2.436977
