19
Iteration:  3120
 C         4.367329        -1.686646         1.171666
 C         3.171173        -0.857115         0.565693
 O         1.862846        -1.444553         0.308313
 C         1.346703        -0.019747         0.054997
 C        -0.109317         0.013387         0.557597
 C         2.122070         0.286360        -1.294806
 C         3.395439         0.212350        -0.568215
 C         2.792118         0.580397         0.690365
 O         3.153516         1.456742         1.639195
 H         5.379083        -1.376238         0.708531
 H         4.380079        -1.529965         2.283166
 H         4.215113        -2.814301         1.018287
 H        -0.159098         0.329663         1.578641
 H        -0.778305         0.711331         0.046630
 H        -0.393822        -1.066107         0.433238
 H         1.987745        -0.349788        -2.212215
 H         1.924172         1.323430        -1.671566
 H         4.384401         0.489049        -0.730202
 H         2.543814         2.183982         1.680069
