19
Iteration:   631
 C         4.392213        -1.700024         0.758868
 C         3.309016        -0.785629         0.436018
 O         2.054238        -1.346704        -0.089180
 C         1.451469        -0.075154        -0.032474
 C         0.017384        -0.048313         0.261521
 C         2.253340         0.679428        -1.199670
 C         3.477512         0.575329        -0.307100
 C         2.642483         0.514207         0.972613
 O         2.510619         0.879249         2.315657
 H         4.183206        -2.477798         1.547650
 H         4.695905        -2.237558        -0.245561
 H         5.269763        -1.186824         1.165547
 H        -0.531022        -0.216630        -0.672848
 H        -0.172888        -0.841013         1.004526
 H        -0.277163         0.969229         0.490310
 H         2.317279         0.035161        -2.148218
 H         1.933108         1.735897        -1.348011
 H         4.449810         0.990716        -0.342162
 H         3.325725         1.226072         2.681297
