19
Iteration:  2505charge 0 multiplicity 1
 C         4.372187        -1.859044         1.077051
 C         3.265732        -0.894737         0.415288
 O         1.971494        -1.465373         0.439814
 C         1.397407        -0.079298         0.139531
 C         0.021288         0.036242         0.501212
 C         1.918519         0.331953        -1.160441
 C         3.300794         0.240160        -0.677347
 C         2.795756         0.521469         0.852454
 O         3.121636         1.696023         1.474036
 H         3.747507        -2.646229         1.453903
 H         5.033498        -2.391325         0.391544
 H         4.860236        -1.410683         1.897972
 H        -0.113158        -0.226231         1.612364
 H        -0.423145         1.046999         0.550013
 H        -0.802649        -0.507208        -0.083447
 H         1.738138        -0.448629        -1.904484
 H         1.403309         1.281602        -1.404872
 H         4.071185         0.932652        -0.882113
 H         2.914549         1.569780         2.390097
