19
Iteration:  2235charge 0 multiplicity 1
 C         4.369444        -1.688417         0.842187
 C         3.256587        -0.784766         0.600125
 O         1.912423        -1.411683         0.447964
 C         1.406015        -0.052431         0.157361
 C         0.042737         0.286756         0.546221
 C         1.998867         0.026564        -1.369353
 C         3.419549         0.227413        -0.675432
 C         2.767171         0.608261         0.708726
 O         2.929840         1.322791         1.886768
 H         4.244075        -2.383415         1.733349
 H         4.525563        -2.151956        -0.141180
 H         5.265034        -1.053453         0.990489
 H         0.027619         0.419861         1.631040
 H        -0.272813         1.154431         0.013125
 H        -0.664770        -0.542666         0.399468
 H         1.808895        -0.806911        -2.067884
 H         1.721449         1.051696        -1.747596
 H         4.384085         0.409888        -1.187186
 H         3.124021         2.283257         1.743123
