19
Iteration:  2528charge 0 multiplicity 1
 C         4.424995        -1.623279         0.962675
 C         3.188901        -0.848621         0.576670
 O         1.884947        -1.395552         0.403839
 C         1.366943        -0.088306         0.169404
 C        -0.104000         0.025000         0.561845
 C         1.976824         0.190950        -1.248394
 C         3.334235         0.143453        -0.606462
 C         2.812520         0.585359         0.792683
 O         3.223721         1.561338         1.573810
 H         4.174698        -2.564668         1.457538
 H         4.947263        -2.001792         0.096825
 H         5.100394        -1.130421         1.620382
 H        -0.775996        -0.378286         1.354961
 H        -0.352515         1.094507         0.487466
 H        -0.647954        -0.163629        -0.426782
 H         1.795375        -0.606510        -1.977882
 H         1.756985         1.189703        -1.639052
 H         4.224321         0.268499        -1.169581
 H         2.809455         1.476593         2.481401
