19
Iteration:  2847charge 0 multiplicity 1
 C         4.395244        -1.709614         0.942409
 C         3.260885        -0.847167         0.544735
 O         1.919558        -1.420824         0.417463
 C         1.465969        -0.051806         0.109176
 C         0.130610         0.070917         0.666338
 C         2.012090         0.187360        -1.384600
 C         3.372617         0.190259        -0.558643
 C         2.672337         0.552634         0.745859
 O         2.861633         1.556115         1.693272
 H         5.391824        -1.370246         0.605589
 H         4.347864        -2.041429         2.028891
 H         4.116573        -2.691858         0.489811
 H         0.125245         0.219101         1.746995
 H        -0.342766         0.885049         0.028641
 H        -0.474162        -0.876258         0.504953
 H         1.944677        -0.598068        -2.155691
 H         1.720622         1.205030        -1.645066
 H         4.252886         0.566288        -1.070925
 H         3.461377         2.274793         1.345287
