19
Iteration:  1517charge 0 multiplicity 1
 C         4.420085        -1.680581         0.920271
 C         3.249699        -0.923040         0.528760
 O         2.087984        -1.515707         0.026202
 C         1.459853        -0.067921        -0.021388
 C         0.033813        -0.043134         0.490907
 C         2.172737         0.676761        -1.233411
 C         3.438706         0.408137        -0.446140
 C         2.678197         0.443379         0.837918
 O         2.559919         1.244347         1.982787
 H         4.817164        -1.470626         1.940504
 H         4.074108        -2.675060         1.117483
 H         5.304226        -1.714478         0.292670
 H         0.280797         0.065239         1.588169
 H        -0.507725         0.884503         0.187410
 H        -0.512019        -0.998364         0.491220
 H         2.095430         0.423730        -2.274410
 H         1.859158         1.719403        -1.091823
 H         4.536149         0.691045        -0.613205
 H         3.004549         2.085045         1.716780
