19
Iteration:  1735
 C         4.465942        -1.613410         0.966592
 C         3.341650        -0.830190         0.440920
 O         2.081098        -1.523844         0.268208
 C         1.449492        -0.161805         0.103623
 C        -0.023644         0.135293         0.397357
 C         2.021079         0.377214        -1.294099
 C         3.301347         0.451506        -0.530638
 C         2.680889         0.397722         0.837033
 O         2.808893         1.272108         1.930455
 H         5.052095        -2.193623         0.183300
 H         5.087470        -1.063714         1.598037
 H         4.067310        -2.463575         1.578035
 H        -0.644793         0.245631        -0.505768
 H        -0.469528        -0.547690         1.095412
 H         0.130634         1.162263         0.731565
 H         2.060476        -0.316105        -2.160410
 H         1.419515         1.281146        -1.331032
 H         4.174775         1.095046        -0.511040
 H         2.808995         2.182000         1.526397
