19
Iteration:    70charge 0 multiplicity 1
 C         4.375511        -1.878625         0.731684
 C         3.312508        -0.908551         0.387165
 O         2.138368        -1.428656        -0.224530
 C         1.524334        -0.061318         0.017625
 C         0.005433         0.131146         0.277119
 C         2.238951         0.842439        -0.996720
 C         3.502210         0.569033        -0.244293
 C         2.659260         0.272989         1.043917
 O         2.465139         1.078989         2.151284
 H         4.055118        -2.586367         1.571149
 H         4.808598        -2.493772        -0.099929
 H         5.145064        -1.220646         1.186563
 H        -0.071614         1.112667         0.928491
 H        -0.478581         0.316253        -0.712400
 H        -0.403025        -0.772744         0.765567
 H         2.106482         0.556883        -2.165293
 H         1.913633         1.834697        -0.906513
 H         4.397069         1.228574        -0.396761
 H         2.216282         0.448615         2.826041
