19
Iteration:  2711charge 0 multiplicity 1
 C         4.467169        -1.715176         0.922883
 C         3.254824        -0.852057         0.551177
 O         1.932119        -1.475124         0.537630
 C         1.398978        -0.136019         0.175642
 C        -0.134196         0.051907         0.372657
 C         1.904815         0.208821        -1.203516
 C         3.358810         0.207748        -0.606509
 C         2.746939         0.578090         0.782584
 O         3.117014         1.667159         1.632330
 H         5.390230        -1.090511         0.730157
 H         4.591322        -2.165276         2.014497
 H         4.475954        -2.448854         0.081313
 H        -0.438232        -0.418897         1.308965
 H        -0.223761         1.124419         0.301612
 H        -0.683559        -0.400837        -0.489423
 H         1.595755        -0.423066        -2.079023
 H         1.812918         1.290522        -1.493885
 H         4.314066         0.641692        -1.032928
 H         3.179029         1.149586         2.435473
