19
Iteration:  3352charge 0 multiplicity 1
 C         4.505361        -1.529548         1.213685
 C         3.327451        -0.894519         0.491966
 O         1.893554        -1.506507         0.215570
 C         1.389442        -0.087252         0.116292
 C        -0.031611         0.313012         0.395650
 C         1.969882         0.237453        -1.284862
 C         3.373280         0.262572        -0.679688
 C         2.779118         0.467604         0.751167
 O         2.943663         1.190444         1.897303
 H         5.344089        -1.535127         0.512237
 H         4.762018        -0.784677         1.991885
 H         4.311634        -2.486865         1.662549
 H        -0.074810         1.033050         1.298595
 H        -0.305197         0.968909        -0.436454
 H        -0.769556        -0.497410         0.586726
 H         1.653329        -0.306182        -2.160570
 H         1.483177         1.227787        -1.415941
 H         4.339123         0.554623        -1.022631
 H         2.873207         2.073536         1.555788
