19
Iteration:  2914
 C         4.482527        -1.606376         0.964398
 C         3.139286        -0.859525         0.656650
 O         1.885547        -1.445893         0.474265
 C         1.387293        -0.054152         0.131253
 C        -0.049967         0.076094         0.453187
 C         1.941485         0.137180        -1.277260
 C         3.297947         0.202302        -0.649192
 C         2.785847         0.526961         0.760095
 O         3.149595         1.594032         1.624026
 H         5.067194        -1.034822         1.696972
 H         4.344204        -2.603417         1.353211
 H         5.102340        -1.824930         0.084019
 H        -0.175517         0.054477         1.543633
 H        -0.338911         1.081754         0.025656
 H        -0.588329        -0.760729        -0.074077
 H         1.807519        -0.635408        -2.033752
 H         1.591292         1.136880        -1.592152
 H         4.320582         0.515815        -1.062753
 H         3.259396         1.082527         2.446774
