19
Iteration:   258charge 0 multiplicity 1
 C         4.359634        -1.895091         0.689862
 C         3.327712        -0.799062         0.463042
 O         2.201780        -1.455970        -0.052990
 C         1.508354        -0.053401        -0.036630
 C         0.034342         0.131585         0.244947
 C         2.232254         0.787280        -1.132130
 C         3.484723         0.737862        -0.248981
 C         2.626778         0.402759         0.987447
 O         2.440040         0.821006         2.263500
 H         3.926570        -2.767807         1.172349
 H         4.613563        -2.206621        -0.349724
 H         5.339587        -1.414185         1.156148
 H         0.041794         1.035520         0.951368
 H        -0.411869         0.529199        -0.768894
 H        -0.319127        -0.847833         0.813517
 H         2.248959         0.389513        -2.280772
 H         2.031203         1.826970        -1.063133
 H         4.473442         0.908692        -0.432365
 H         1.665920         1.390448         2.260645
