19
Iteration:  3884
 C         4.474912        -1.682257         0.705778
 C         3.248721        -0.798288         0.511075
 O         1.952051        -1.470995         0.244468
 C         1.407720        -0.129023         0.021380
 C        -0.212554         0.009680         0.015508
 C         2.148270         0.437511        -1.171052
 C         3.456171         0.523714        -0.434046
 C         2.765709         0.550302         1.063315
 O         2.922305         1.141225         2.255429
 H         4.421324        -1.820995         1.769478
 H         4.234310        -2.659621         0.111730
 H         5.375785        -1.220109         0.265105
 H        -0.456365         1.193259        -0.161653
 H        -0.540021        -0.544128        -0.915965
 H        -0.564578        -0.310752         1.010279
 H         2.145829        -0.313276        -2.011351
 H         1.677569         1.382505        -1.566518
 H         4.330614         0.978455        -0.841957
 H         2.688722         2.084028         2.252195
