19
Iteration:   759charge 0 multiplicity 1
 C         4.463320        -1.651440         0.852598
 C         3.345720        -0.735335         0.418891
 O         2.100369        -1.483017         0.013363
 C         1.467132        -0.154061         0.020521
 C         0.022366         0.069667         0.158508
 C         2.110039         0.663819        -1.165165
 C         3.411465         0.685550        -0.332721
 C         2.659778         0.434034         0.904235
 O         2.613186         0.817317         2.265146
 H         4.212525        -2.224632         1.710579
 H         4.858464        -2.299763         0.158007
 H         5.283812        -1.053950         1.090571
 H        -0.218182         1.096860         0.259941
 H        -0.455551        -0.277733        -0.728870
 H        -0.358391        -0.503121         0.990065
 H         2.173457         0.196058        -2.064045
 H         1.538962         1.579659        -1.282957
 H         4.347421         1.096020        -0.702226
 H         2.208681         1.718789         2.267675
