19
Iteration:  4566
 C         4.528572        -1.491810         0.945345
 C         3.307831        -0.842054         0.420505
 O         1.959806        -1.495126         0.190112
 C         1.376933        -0.151567         0.079700
 C        -0.103542         0.147217         0.273219
 C         2.117882         0.480425        -1.279463
 C         3.433266         0.416330        -0.474591
 C         2.687388         0.413071         0.853361
 O         2.834245         1.131207         2.054147
 H         4.813923        -2.459145         0.473178
 H         5.265220        -0.674162         0.692271
 H         4.602447        -1.804155         2.000339
 H        -0.628900         0.200671        -0.714945
 H        -0.458260        -0.520313         1.046416
 H        -0.197133         1.182818         0.846971
 H         1.990133        -0.305915        -1.992517
 H         1.865399         1.491105        -1.585576
 H         4.412625         0.719119        -0.818266
 H         2.214828         0.766756         2.756796
