19
Iteration:  4337
 C         4.218967        -1.718328         1.215878
 C         3.308777        -0.847675         0.369234
 O         2.076089        -1.480639         0.074315
 C         1.442830        -0.117663         0.022879
 C         0.037313        -0.116946         0.605562
 C         2.078408         0.525581        -1.264525
 C         3.428367         0.554595        -0.502046
 C         2.746111         0.467033         0.707698
 O         2.750922         1.324145         1.822966
 H         4.035225        -2.776623         0.737120
 H         5.315095        -1.505230         1.038186
 H         4.176915        -1.624818         2.308904
 H        -0.602055        -0.116847        -0.226302
 H        -0.160071        -0.991460         1.149933
 H        -0.049437         0.765560         1.305712
 H         1.906355         0.160225        -2.338020
 H         1.692725         1.621076        -1.136672
 H         4.411152         1.082591        -0.788352
 H         3.674542         1.371067         2.150844
