19
Iteration:  2115
 C         4.301391        -1.771936         1.067105
 C         3.353642        -0.781368         0.397929
 O         2.006979        -1.456779         0.293828
 C         1.462346        -0.143073         0.184886
 C         0.009967         0.144871         0.525831
 C         1.885001         0.239283        -1.313307
 C         3.370429         0.263528        -0.705060
 C         2.727251         0.596873         0.803870
 O         3.022190         1.407594         1.871019
 H         5.230588        -1.188079         1.384385
 H         3.795468        -1.904059         2.061421
 H         4.491126        -2.665684         0.461367
 H        -0.621712        -0.685391         1.051950
 H         0.083106         1.021041         1.194426
 H        -0.612730         0.393122        -0.398934
 H         1.680610        -0.578575        -2.001744
 H         1.596352         1.233499        -1.788189
 H         4.211659         0.727568        -1.221229
 H         3.133356         2.293109         1.515609
