19
Iteration:    67charge 0 multiplicity 1
 C         4.366322        -1.878513         0.745435
 C         3.310592        -0.898821         0.393582
 O         2.128984        -1.442075        -0.216111
 C         1.525650        -0.060601         0.007666
 C         0.000921         0.121750         0.297133
 C         2.256410         0.837757        -1.013124
 C         3.499754         0.610205        -0.233039
 C         2.681321         0.293612         1.022818
 O         2.450054         1.072581         2.135613
 H         3.994096        -2.601816         1.498715
 H         4.739721        -2.412139        -0.142450
 H         5.209207        -1.361158         1.117165
 H        -0.027560         0.967853         0.946365
 H        -0.465537         0.335334        -0.648004
 H        -0.411319        -0.757599         0.727584
 H         2.187791         0.554647        -2.018544
 H         1.914025         1.822826        -0.855332
 H         4.431590         1.087155        -0.407493
 H         2.234165         0.409356         2.846651
