19
Iteration:  3309charge 0 multiplicity 1
 C         4.244983        -1.676067         1.218779
 C         3.156255        -0.900956         0.608975
 O         1.900060        -1.372099         0.228067
 C         1.418277        -0.058085         0.033080
 C        -0.002552        -0.064986         0.556302
 C         2.074548         0.337526        -1.296496
 C         3.472539         0.295747        -0.663899
 C         2.749624         0.566128         0.735006
 O         3.064816         1.413580         1.735118
 H         5.169086        -1.371339         0.784171
 H         4.172302        -1.648375         2.304957
 H         4.128591        -2.719733         0.970614
 H        -0.009003        -0.534910         1.547185
 H        -0.399947         0.925200         0.559973
 H        -0.538662        -0.768536        -0.022954
 H         1.874330        -0.390925        -2.072871
 H         1.831028         1.338283        -1.680576
 H         4.433984         0.708685        -0.986640
 H         3.303216         2.251394         1.309680
