19
Iteration:  3052
 C         4.415732        -1.738729         0.856532
 C         3.294605        -0.820100         0.608190
 O         1.931768        -1.387081         0.565368
 C         1.429614        -0.049693         0.187479
 C        -0.054631         0.159910         0.366161
 C         2.049363         0.123787        -1.312056
 C         3.331835         0.194749        -0.508087
 C         2.742601         0.557549         0.780088
 O         2.918673         1.545609         1.645218
 H         5.371436        -1.272053         0.543010
 H         4.378420        -1.955701         1.958719
 H         4.264477        -2.708863         0.339132
 H        -0.371684         0.315423         1.417251
 H        -0.460016         1.096375        -0.127738
 H        -0.581915        -0.740440        -0.019017
 H         2.015636        -0.748120        -2.061293
 H         1.872323         1.077831        -1.843286
 H         4.373139         0.317805        -0.950012
 H         3.782241         1.405541         2.073065
