19
Iteration:   885
 C         4.452157        -1.739327         0.727978
 C         3.348942        -0.847889         0.489548
 O         2.041889        -1.461452         0.021074
 C         1.427203        -0.135255         0.012113
 C         0.014901        -0.127198         0.263399
 C         2.239430         0.675263        -1.134652
 C         3.446483         0.603306        -0.283470
 C         2.661262         0.399140         0.992965
 O         2.499416         1.251099         2.084198
 H         4.143791        -2.714548         1.111466
 H         5.011212        -1.949374        -0.228399
 H         5.149532        -1.357270         1.528548
 H        -0.132876        -0.964483         1.037487
 H        -0.418314         0.893086         0.565819
 H        -0.500335        -0.409428        -0.703283
 H         2.222519         0.038701        -2.030482
 H         1.786795         1.630025        -1.402248
 H         4.375424         1.077370        -0.289908
 H         3.370225         1.625915         2.345163
