19
Iteration:  4117charge 0 multiplicity 1
 C         4.305559        -1.744891         0.992289
 C         3.298513        -0.819779         0.430195
 O         1.940719        -1.396874         0.111175
 C         1.421506        -0.144257        -0.015551
 C        -0.052730        -0.077639         0.532431
 C         2.099140         0.449302        -1.327545
 C         3.508445         0.425832        -0.504504
 C         2.762002         0.541613         0.858426
 O         2.861433         1.332900         2.038758
 H         5.151195        -2.108546         0.285059
 H         4.831524        -1.306888         1.838930
 H         3.814818        -2.709455         1.342761
 H        -0.083468        -0.686093         1.431591
 H        -0.348793         0.987329         0.625476
 H        -0.737868        -0.561512        -0.183942
 H         2.096069        -0.259566        -2.147187
 H         1.832816         1.486029        -1.656226
 H         4.468389         0.834836        -0.802821
 H         2.797275         2.228048         1.708687
