19
Iteration:  3951
 C         4.354123        -1.724573         1.052328
 C         3.261723        -0.873285         0.390904
 O         2.075850        -1.472688        -0.067828
 C         1.469240        -0.130493        -0.001496
 C         0.082976         0.006250         0.534928
 C         2.113246         0.622733        -1.257366
 C         3.409982         0.417984        -0.504210
 C         2.675642         0.388348         0.879733
 O         2.718887         1.259658         2.051605
 H         3.854032        -2.229440         1.883065
 H         4.846588        -2.605764         0.472275
 H         5.041096        -0.992454         1.546673
 H        -0.060571         0.771304         1.434120
 H        -0.532206         0.410324        -0.328162
 H        -0.500802        -0.818426         0.929350
 H         2.127564         0.173716        -2.268593
 H         1.688603         1.660054        -1.163379
 H         4.366014         0.820208        -0.631385
 H         2.817447         2.165698         1.667679
