19
Iteration:  4687charge 0 multiplicity 1
 C         4.308176        -1.759970         1.002708
 C         3.279110        -0.849214         0.416398
 O         2.019219        -1.437531        -0.022507
 C         1.465039        -0.156443         0.000784
 C         0.014919        -0.157357         0.535935
 C         2.188585         0.710239        -1.248527
 C         3.429561         0.588220        -0.378249
 C         2.675009         0.416974         0.825351
 O         2.803694         1.253071         1.899812
 H         4.967289        -2.283112         0.308544
 H         4.784001        -1.151889         1.855633
 H         3.760917        -2.549444         1.550818
 H        -0.462669        -1.085201         0.277221
 H        -0.041728         0.094301         1.515242
 H        -0.533642         0.741324         0.084773
 H         2.010354         0.408047        -2.256368
 H         1.965043         1.708718        -0.968519
 H         4.484265         1.002037        -0.556001
 H         2.344512         0.998306         2.710429
