19
Iteration:  4220
 C         4.450107        -1.614027         0.829690
 C         3.260597        -0.797080         0.522618
 O         1.969863        -1.516897         0.312458
 C         1.403506        -0.089043         0.042708
 C        -0.147433         0.110002         0.239949
 C         2.141567         0.383605        -1.292378
 C         3.424425         0.429649        -0.547708
 C         2.772108         0.489266         0.915259
 O         2.850702         1.173991         2.098422
 H         4.714052        -2.272198         0.056217
 H         5.323176        -0.918675         1.040592
 H         4.405414        -2.074518         1.785038
 H        -0.576877        -0.906994         0.541685
 H        -0.297563         0.645959         1.199438
 H        -0.733891         0.662601        -0.603449
 H         1.992023        -0.422120        -2.035928
 H         1.805913         1.300414        -1.712460
 H         4.481844         0.811971        -0.779516
 H         2.863140         2.142685         1.854390
