19
Iteration:  2560charge 0 multiplicity 1
 C         4.516542        -1.550753         0.961115
 C         3.160119        -0.880373         0.484171
 O         1.847976        -1.449160         0.597037
 C         1.356523        -0.049227         0.106047
 C        -0.047791         0.160042         0.506764
 C         1.965854         0.105750        -1.368767
 C         3.288549         0.244860        -0.620073
 C         2.764934         0.542864         0.726980
 O         3.189236         1.437305         1.701601
 H         4.373789        -1.990027         1.929012
 H         4.966019        -2.132268         0.155853
 H         5.157563        -0.710050         1.046324
 H        -0.678704        -0.291668         1.385207
 H        -0.133006         1.274141         0.591843
 H        -0.494595        -0.145994        -0.520714
 H         1.817084        -0.702317        -2.106571
 H         1.613533         1.064048        -1.816351
 H         4.219509         0.470109        -1.074433
 H         3.273712         0.920305         2.511543
