19
Iteration:  4681
 C         4.299493        -1.771083         1.003918
 C         3.244873        -0.877897         0.417680
 O         2.064176        -1.417932        -0.049368
 C         1.443428        -0.142056        -0.010882
 C         0.018795        -0.181475         0.520966
 C         2.173088         0.688763        -1.190110
 C         3.423123         0.534517        -0.378212
 C         2.702827         0.466108         0.849052
 O         2.832424         1.326075         1.907289
 H         4.993055        -2.377179         0.385789
 H         4.794047        -1.237288         1.781786
 H         3.607200        -2.623432         1.248767
 H        -0.528093        -1.153115         0.298389
 H        -0.016374         0.016300         1.713631
 H        -0.556180         0.570952         0.035878
 H         2.147698         0.519540        -2.320240
 H         1.884428         1.765584        -0.907964
 H         4.359609         0.911810        -0.536539
 H         2.075967         0.920535         2.438697
