19
Iteration:  4667charge 0 multiplicity 1
 C         4.245922        -1.866008         0.968245
 C         3.316914        -0.831692         0.412821
 O         2.083692        -1.432839        -0.086144
 C         1.446819        -0.055581        -0.004638
 C         0.020139        -0.216703         0.456329
 C         2.084272         0.717313        -1.137286
 C         3.477047         0.415918        -0.436061
 C         2.715975         0.434822         0.929257
 O         2.810136         1.434557         1.963450
 H         4.961625        -2.022090         0.197687
 H         4.744415        -1.513227         1.939597
 H         3.785712        -2.731554         1.364463
 H        -0.258987        -1.269615         0.200749
 H         0.039291        -0.140355         1.542971
 H        -0.753729         0.561736         0.150802
 H         1.910976         0.182265        -2.083890
 H         1.808010         1.734289        -1.149541
 H         4.449145         0.914396        -0.651964
 H         2.101493         1.528222         2.602584
