19
Iteration:  1573
 C         4.415304        -1.656833         0.892367
 C         3.272227        -0.777014         0.533698
 O         2.003265        -1.425653         0.156480
 C         1.425468        -0.120413         0.076302
 C        -0.056186        -0.049245         0.253412
 C         2.128604         0.421914        -1.272437
 C         3.454116         0.535094        -0.549792
 C         2.691899         0.516785         0.850670
 O         2.760123         1.194343         2.166046
 H         4.591859        -1.508875         1.982795
 H         4.178195        -2.636221         0.611190
 H         5.280856        -1.338023         0.320549
 H        -0.363318        -0.712852         1.082651
 H        -0.277058         0.913576         0.724968
 H        -0.731667        -0.119161        -0.596174
 H         2.019845        -0.326275        -2.059899
 H         1.708997         1.345328        -1.595023
 H         4.445266         0.824161        -0.855044
 H         3.715418         1.257545         2.249705
