19
Iteration:  3092
 C         4.374357        -1.795249         0.983565
 C         3.257875        -0.796603         0.530708
 O         1.926307        -1.393751         0.492279
 C         1.389311        -0.105787         0.154428
 C        -0.041506         0.037345         0.296188
 C         1.999376         0.200835        -1.231502
 C         3.298369         0.225454        -0.594226
 C         2.772879         0.626542         0.802888
 O         3.128776         1.533368         1.768026
 H         5.312873        -1.740735         0.474838
 H         4.633274        -1.780896         2.037382
 H         3.926270        -2.746638         0.785211
 H        -0.425285         0.614523         1.179808
 H        -0.334151         0.648724        -0.557876
 H        -0.454447        -0.951847         0.194046
 H         1.839100        -0.493384        -2.035948
 H         1.649540         1.152563        -1.630852
 H         4.326297         0.375756        -0.973258
 H         2.810417         2.426216         1.499314
