19
Iteration:  3263
 C         4.195189        -1.840484         1.001302
 C         3.322549        -0.754039         0.613140
 O         1.945150        -1.445839         0.433788
 C         1.447513        -0.157911         0.169230
 C        -0.045190         0.022127         0.348363
 C         2.019069         0.194604        -1.158302
 C         3.350267         0.291768        -0.565772
 C         2.862612         0.616520         0.783281
 O         3.037743         1.585935         1.644808
 H         5.127059        -1.470747         1.418905
 H         3.706039        -2.665384         1.457997
 H         4.681577        -2.226618         0.088032
 H        -0.558865        -0.813397         0.894978
 H        -0.136701         0.968550         0.855267
 H        -0.545255         0.083646        -0.636628
 H         1.916261        -0.454179        -2.031201
 H         1.819032         1.258808        -1.356171
 H         4.332338         0.660143        -0.971623
 H         2.880630         2.393602         1.168038
