19
Iteration:  2033charge 0 multiplicity 1
 C         4.395964        -1.755871         0.926428
 C         3.276734        -0.846590         0.478775
 O         2.023490        -1.462939         0.275885
 C         1.446797        -0.045316         0.189028
 C         0.059209         0.156172         0.505255
 C         1.986134         0.292630        -1.289799
 C         3.273107         0.345495        -0.555786
 C         2.755480         0.533287         0.810323
 O         2.890646         1.363633         1.834304
 H         5.035690        -2.330641         0.251687
 H         5.078554        -1.474414         1.808329
 H         3.800178        -2.562626         1.473280
 H        -0.321692        -0.183226         1.417651
 H        -0.197148         1.226688         0.528550
 H        -0.520724        -0.263894        -0.287121
 H         1.993132        -0.583225        -2.012209
 H         1.606315         1.160796        -1.838950
 H         4.250194         0.644279        -0.942416
 H         3.095500         2.239915         1.500869
