19
Iteration:  2817charge 0 multiplicity 1
 C         4.376949        -1.645851         1.164882
 C         3.220155        -0.924569         0.524162
 O         1.931960        -1.451891         0.268723
 C         1.430628        -0.099095         0.066760
 C         0.007529         0.023411         0.815934
 C         1.998505         0.302788        -1.336052
 C         3.446583         0.310635        -0.649706
 C         2.788980         0.518760         0.655330
 O         2.862210         1.523321         1.566205
 H         5.329454        -1.478561         0.729698
 H         4.427173        -1.423696         2.172429
 H         4.196208        -2.684158         1.275172
 H         0.204472        -0.115365         1.874446
 H        -0.120041         1.116288         0.686775
 H        -0.791501        -0.643523         0.409264
 H         1.865245        -0.442196        -2.094026
 H         1.575080         1.289278        -1.565283
 H         4.399020         0.337539        -1.273078
 H         3.734675         1.516348         1.943411
