19
Iteration:  4241
 C         4.488062        -1.624270         0.796363
 C         3.307085        -0.773680         0.472967
 O         1.981141        -1.430470         0.299470
 C         1.462094        -0.102104         0.146270
 C        -0.059753         0.120289         0.168030
 C         2.040361         0.302518        -1.182836
 C         3.360103         0.364284        -0.456146
 C         2.687599         0.547225         0.902003
 O         2.867652         1.178747         2.067085
 H         4.312974        -2.506718         0.164184
 H         5.474256        -1.163009         0.482260
 H         4.688209        -1.934694         1.801629
 H        -0.577110        -0.854834         0.032203
 H        -0.505804         0.720857         0.945111
 H        -0.176923         0.828791        -0.728806
 H         2.088363        -0.469023        -1.964847
 H         1.883208         1.242707        -1.634125
 H         4.330908         0.729145        -0.950369
 H         2.241382         1.859310         2.275658
