19
Iteration:  4704
 C         4.392543        -1.661290         1.055897
 C         3.281216        -0.858127         0.368022
 O         2.034890        -1.480138        -0.000304
 C         1.443383        -0.014591        -0.017468
 C         0.045088         0.008323         0.430000
 C         2.094127         0.660146        -1.220158
 C         3.438898         0.492805        -0.458329
 C         2.666051         0.363848         0.893000
 O         2.740366         1.187789         2.008574
 H         4.917624        -2.330502         0.300689
 H         5.101473        -1.000084         1.448503
 H         3.908970        -2.485029         1.635739
 H        -0.440739        -0.951036         0.137971
 H         0.080779        -0.039304         1.621887
 H        -0.598341         0.780671         0.068943
 H         2.210962        -0.000389        -2.131926
 H         1.657503         1.682193        -1.539936
 H         4.345740         1.087656        -0.515835
 H         2.840028         0.484173         2.649425
