19
Iteration:  2011charge 0 multiplicity 1
 C         4.268980        -1.783281         1.094218
 C         3.279222        -0.841064         0.419414
 O         2.028290        -1.439754         0.286044
 C         1.400887        -0.198030         0.048271
 C        -0.001649        -0.000954         0.484022
 C         1.971164         0.382398        -1.249380
 C         3.414009         0.479482        -0.672937
 C         2.755566         0.524327         0.783723
 O         3.019217         1.389209         1.910593
 H         4.478611        -2.569424         0.324016
 H         5.334091        -1.459036         1.446048
 H         3.732378        -2.343369         1.927545
 H        -0.115148         0.076134         1.518962
 H        -0.338349         1.004695         0.205748
 H        -0.748963        -0.690266         0.148590
 H         1.599744        -0.217109        -2.147164
 H         1.532848         1.367886        -1.407600
 H         4.242853         1.096297        -1.039180
 H         3.239022         2.227182         1.420022
