19
Iteration:   566
 C         4.420542        -1.706498         0.895599
 C         3.343809        -0.874569         0.331877
 O         2.183238        -1.466310        -0.215249
 C         1.464779        -0.081806        -0.002724
 C        -0.077592         0.096737         0.149466
 C         2.065976         0.892591        -1.000032
 C         3.433816         0.527141        -0.318941
 C         2.650373         0.296398         1.028324
 O         2.715852         0.983235         2.230393
 H         4.012323        -2.254692         1.729579
 H         4.873039        -2.386893         0.114170
 H         5.267472        -1.322387         1.308634
 H        -0.630783        -0.766382         0.428227
 H        -0.293654         0.810767         0.935456
 H        -0.562824         0.350664        -0.750940
 H         2.005953         0.465317        -2.007032
 H         1.766404         1.842120        -0.879401
 H         4.389327         1.028482        -0.411235
 H         1.941334         0.595568         2.710368
