19
Iteration:   417charge 0 multiplicity 1
 C         4.428140        -1.677667         0.715950
 C         3.219333        -0.880761         0.392195
 O         1.978703        -1.355713        -0.214044
 C         1.473334         0.046518        -0.032574
 C         0.032655         0.025504         0.278000
 C         2.341204         0.834162        -1.148318
 C         3.510975         0.529711        -0.156667
 C         2.633939         0.317670         1.000815
 O         2.531729         0.790828         2.308705
 H         4.377257        -2.428994         1.549030
 H         4.758239        -2.332933        -0.116100
 H         5.266039        -0.968676         0.983469
 H        -0.577194         0.893319        -0.019803
 H        -0.511839        -0.881711        -0.148927
 H        -0.175530        -0.085133         1.337831
 H         2.303301         0.317129        -2.120466
 H         2.159329         1.964374        -1.258255
 H         4.521100         0.925299        -0.166897
 H         2.791008         1.720532         2.282890
