19
Iteration:  3425
 C         4.335964        -1.803654         0.931414
 C         3.281543        -0.888013         0.542254
 O         1.986932        -1.405521         0.192029
 C         1.403017        -0.049946         0.120355
 C         0.017887         0.050586         0.396328
 C         2.081970         0.351795        -1.247127
 C         3.425860         0.300454        -0.469675
 C         2.716653         0.501125         0.915431
 O         2.889269         1.455974         1.848538
 H         3.979740        -2.815804         0.602734
 H         5.304566        -1.632878         0.462934
 H         4.453021        -1.818026         2.057001
 H        -0.468118         1.011137         0.225764
 H        -0.449579        -0.624584        -0.310846
 H        -0.255262        -0.257928         1.454327
 H         1.818046        -0.187582        -2.194670
 H         1.862657         1.392134        -1.538538
 H         4.419731         0.745255        -0.570002
 H         2.929544         2.276024         1.329496
