19
Iteration:  1041charge 0 multiplicity 1
 C         4.456820        -1.667046         0.929848
 C         3.310597        -0.876137         0.480056
 O         2.122501        -1.506934        -0.127296
 C         1.447953        -0.209887         0.054945
 C        -0.059599        -0.011610         0.122371
 C         2.044675         0.730570        -1.034481
 C         3.441172         0.529843        -0.315576
 C         2.658127         0.345604         0.993475
 O         2.740893         1.171516         2.099640
 H         4.011349        -2.190260         1.793994
 H         4.731719        -2.273536         0.175320
 H         5.188955        -0.966344         1.222061
 H        -0.313289        -0.771728         0.826262
 H        -0.523586         0.885667         0.504572
 H        -0.608113        -0.218741        -0.765497
 H         1.942371         0.463934        -2.097034
 H         1.642970         1.640554        -0.862812
 H         4.424859         1.070687        -0.392554
 H         2.861307         2.056520         1.700401
