19
Iteration:  4989
 C         4.278637        -1.721720         1.032514
 C         3.278597        -0.828370         0.359333
 O         2.038864        -1.421121        -0.068395
 C         1.453142        -0.034438        -0.006481
 C         0.018340        -0.134057         0.443367
 C         2.103266         0.594516        -1.290989
 C         3.435111         0.516530        -0.455102
 C         2.719525         0.482523         0.906450
 O         2.801708         1.249764         2.083975
 H         4.003936        -2.716237         0.649165
 H         5.350797        -1.672215         0.865002
 H         4.110399        -1.934109         2.110158
 H        -0.525399        -0.714836        -0.314941
 H         0.094236        -0.669652         1.365799
 H        -0.484620         0.850546         0.729762
 H         2.138426         0.104770        -2.194723
 H         1.705509         1.610318        -1.286416
 H         4.336931         1.131221        -0.413820
 H         3.146988         0.701810         2.786713
