19
Iteration:  1504charge 0 multiplicity 1
 C         4.424707        -1.649952         0.917812
 C         3.223394        -0.857412         0.438660
 O         1.967991        -1.446700         0.024044
 C         1.459778        -0.052561        -0.028077
 C         0.077995        -0.115188         0.590674
 C         2.285316         0.688834        -1.282471
 C         3.516384         0.343288        -0.408820
 C         2.617051         0.351899         0.939964
 O         2.595657         1.256123         1.968703
 H         4.775479        -1.058853         1.764635
 H         4.142694        -2.745860         1.089448
 H         5.099967        -1.603819         0.040916
 H        -0.001639         0.073911         1.719827
 H        -0.730104         0.563966         0.137578
 H        -0.339161        -1.128787         0.252102
 H         2.123314         0.141184        -2.205793
 H         2.204967         1.813028        -1.390046
 H         4.570700         0.768590        -0.459121
 H         2.637326         2.152294         1.580810
