19
Iteration:    45
 C         4.293102        -1.928387         0.671156
 C         3.282667        -0.810260         0.475476
 O         2.058027        -1.363896        -0.075336
 C         1.548979        -0.026762        -0.104093
 C         0.114001        -0.028113         0.380146
 C         2.333616         0.832698        -1.213993
 C         3.557779         0.666114        -0.192264
 C         2.594970         0.398499         0.974794
 O         2.428201         1.018400         2.175396
 H         3.801689        -2.643451         1.356169
 H         4.563971        -2.430093        -0.273518
 H         5.195994        -1.599589         1.127069
 H         0.132222         0.410058         1.365426
 H        -0.552946         0.497786        -0.281594
 H        -0.134271        -1.065189         0.422070
 H         2.411945         0.415568        -2.182602
 H         1.935714         1.799899        -1.266263
 H         4.550123         1.045455        -0.140089
 H         2.372269         0.298859         2.803703
