19
Iteration:   780charge 0 multiplicity 1
 C         4.554537        -1.514552         0.927291
 C         3.325890        -0.860040         0.359011
 O         2.074146        -1.442435        -0.126695
 C         1.421855        -0.077106         0.031796
 C        -0.026904         0.057670         0.218141
 C         2.130887         0.691271        -1.148603
 C         3.436020         0.502542        -0.338207
 C         2.655982         0.263547         0.949184
 O         2.559731         0.907468         2.246701
 H         4.302192        -1.921402         1.897890
 H         5.007437        -2.224872         0.329478
 H         5.305123        -0.779184         0.998568
 H        -0.142078         0.970323         0.717065
 H        -0.433511         0.228445        -0.728779
 H        -0.464099        -0.729511         0.758271
 H         2.009491         0.166089        -2.017814
 H         1.666519         1.638466        -1.257481
 H         4.340273         1.107699        -0.406821
 H         3.044782         1.762885         2.235297
