19
Iteration:  3254charge 0 multiplicity 1
 C         4.396512        -1.828412         0.950312
 C         3.213841        -0.877853         0.667010
 O         1.941798        -1.476037         0.493731
 C         1.414052        -0.129510         0.167837
 C        -0.048530         0.106368         0.319701
 C         2.010575         0.247347        -1.227479
 C         3.381037         0.303710        -0.553291
 C         2.819004         0.541078         0.807240
 O         3.024033         1.613956         1.633901
 H         5.066485        -1.505962         1.739081
 H         3.907037        -2.675287         1.445186
 H         4.721164        -2.148617        -0.026734
 H        -0.532128        -0.707861         0.883168
 H        -0.273734         0.978049         0.880762
 H        -0.449160         0.216217        -0.638130
 H         1.826264        -0.380745        -2.098920
 H         1.540812         1.209200        -1.530670
 H         4.417746         0.487025        -0.977584
 H         2.857552         2.414412         1.146998
