19
Iteration:  4679charge 0 multiplicity 1
 C         4.285367        -1.786265         0.997165
 C         3.245991        -0.883924         0.415748
 O         2.077404        -1.417509        -0.057627
 C         1.434396        -0.127974        -0.015716
 C         0.022869        -0.187434         0.520675
 C         2.160044         0.692089        -1.169057
 C         3.424929         0.507991        -0.389387
 C         2.707882         0.475537         0.864799
 O         2.834558         1.347247         1.915838
 H         5.006740        -2.321963         0.395608
 H         4.844981        -1.270932         1.826263
 H         3.610753        -2.594807         1.217144
 H        -0.523474        -1.169267         0.318200
 H         0.002537        -0.049138         1.656740
 H        -0.602446         0.564425         0.001742
 H         2.183886         0.548159        -2.260290
 H         1.839771         1.711873        -0.983648
 H         4.384161         0.913894        -0.538200
 H         2.058366         0.958662         2.359241
