19
Iteration:  2857
 C         4.439331        -1.807136         0.907308
 C         3.277273        -0.813489         0.593509
 O         1.958844        -1.377614         0.392730
 C         1.448018        -0.075476         0.147137
 C         0.071583         0.100122         0.538389
 C         1.954164         0.152743        -1.245701
 C         3.360022         0.188385        -0.626867
 C         2.728707         0.581947         0.775412
 O         2.877525         1.554562         1.713561
 H         5.454089        -1.334976         0.796166
 H         4.362329        -2.036011         2.032239
 H         4.390929        -2.663755         0.184252
 H         0.074555         0.452068         1.577664
 H        -0.469890         0.917161         0.010161
 H        -0.497534        -0.856029         0.442408
 H         1.669747        -0.673520        -1.954554
 H         1.647533         1.063120        -1.763817
 H         4.366045         0.385278        -0.917469
 H         3.035758         2.438148         1.257016
