19
Iteration:  4258charge 0 multiplicity 1
 C         4.538550        -1.704902         0.832421
 C         3.316586        -0.798644         0.583825
 O         1.905070        -1.487323         0.301963
 C         1.457221        -0.107213         0.062940
 C        -0.024471         0.103461         0.174478
 C         2.052954         0.372529        -1.284171
 C         3.396405         0.486816        -0.540076
 C         2.699879         0.466324         0.870700
 O         2.891442         1.272942         2.108244
 H         4.250957        -2.774485         0.531689
 H         5.366051        -1.329782         0.313699
 H         4.703807        -1.813487         1.957891
 H        -0.431397        -0.869395        -0.121440
 H        -0.249489         0.251517         1.275613
 H        -0.496695         0.879243        -0.362612
 H         1.804216        -0.348905        -2.090710
 H         1.439123         1.356892        -1.412056
 H         4.324418         0.929222        -0.746727
 H         2.072158         1.768338         2.130736
