19
Iteration:  2402charge 0 multiplicity 1
 C         4.506974        -1.642771         0.960460
 C         3.261886        -0.897181         0.407347
 O         1.963006        -1.500354         0.514434
 C         1.416309        -0.080391         0.167955
 C         0.039972         0.315912         0.434790
 C         1.822494         0.216956        -1.295226
 C         3.300639         0.201326        -0.620375
 C         2.718014         0.509465         0.763867
 O         3.035772         1.442900         1.758185
 H         4.413440        -1.519625         2.034026
 H         4.640610        -2.669441         0.758114
 H         5.496584        -1.199721         0.682694
 H        -0.598434         0.193605         1.289116
 H         0.020412         1.339133         0.015748
 H        -0.516198        -0.210087        -0.353871
 H         1.543976        -0.631319        -1.980418
 H         1.617515         1.165091        -1.770823
 H         4.238348         0.619875        -0.968917
 H         3.135194         0.794967         2.539959
