19
Iteration:  2220charge 0 multiplicity 1
 C         4.425487        -1.671296         0.910911
 C         3.221411        -0.819802         0.435861
 O         1.987012        -1.493788         0.531681
 C         1.434631        -0.103244         0.098952
 C        -0.038892         0.296637         0.473823
 C         1.971974         0.218747        -1.250605
 C         3.324362         0.285292        -0.670875
 C         2.797529         0.523473         0.725808
 O         2.965215         1.335778         1.852184
 H         4.110913        -2.037759         1.961862
 H         4.403786        -2.676898         0.296097
 H         5.427888        -1.172820         0.888623
 H        -0.125540         0.438813         1.562837
 H        -0.305141         1.270421         0.002065
 H        -0.719346        -0.400583         0.006295
 H         1.840572        -0.721978        -1.830775
 H         1.453775         1.007372        -1.817329
 H         4.328149         0.411869        -1.032528
 H         3.478636         2.091261         1.573987
