19
Iteration:  4754
 C         4.529172        -1.552438         0.843681
 C         3.264583        -0.799438         0.414703
 O         2.030034        -1.508813         0.288735
 C         1.440790        -0.005684         0.052712
 C        -0.025399         0.185838         0.158357
 C         2.071438         0.431288        -1.321868
 C         3.372335         0.511167        -0.413642
 C         2.701534         0.480755         0.894394
 O         2.699352         0.969947         2.159030
 H         4.634042        -2.532638         0.397195
 H         5.335098        -0.778052         0.478551
 H         4.656732        -1.699047         1.935760
 H        -0.497932        -0.088895        -0.813019
 H        -0.385338        -0.389187         0.976068
 H        -0.344754         1.204853         0.517262
 H         1.963592        -0.188276        -2.213300
 H         1.921064         1.448066        -1.438809
 H         4.322929         0.836159        -0.676842
 H         3.228355         0.225768         2.572414
