19
Iteration:  1501charge 0 multiplicity 1
 C         4.422608        -1.649767         0.922427
 C         3.251928        -0.870587         0.407128
 O         1.934430        -1.423702         0.011138
 C         1.445151        -0.044810        -0.025798
 C         0.087762        -0.124483         0.600220
 C         2.311583         0.664405        -1.276133
 C         3.525618         0.344705        -0.376201
 C         2.605141         0.372671         0.942109
 O         2.610878         1.257199         1.968526
 H         4.817460        -1.021672         1.710753
 H         4.152285        -2.744473         1.132811
 H         5.036640        -1.558426         0.001606
 H        -0.103955         0.009659         1.673995
 H        -0.698776         0.485332         0.132048
 H        -0.282892        -1.120229         0.259425
 H         2.141414         0.040701        -2.195493
 H         2.161546         1.784806        -1.393011
 H         4.478845         0.773857        -0.496697
 H         2.533906         2.143865         1.602635
