19
Iteration:  3994charge 0 multiplicity 1
 C         4.186822        -1.791720         1.173173
 C         3.323836        -0.822515         0.346366
 O         1.992937        -1.424647        -0.013811
 C         1.418922        -0.140376         0.061754
 C         0.021220        -0.183452         0.601848
 C         2.204806         0.710831        -1.374896
 C         3.418002         0.512870        -0.538540
 C         2.734009         0.464660         0.819842
 O         2.815788         1.250925         2.006335
 H         3.862996        -2.795177         1.421479
 H         5.155508        -2.016620         0.532062
 H         4.542941        -1.312812         2.121273
 H        -0.003543         0.403707         1.576258
 H        -0.685639         0.187214        -0.143680
 H        -0.160982        -1.196985         0.821435
 H         2.020088         0.023124        -2.230011
 H         1.967230         1.771405        -1.602132
 H         4.309046         1.005950        -0.831731
 H         3.124864         2.145102         1.800693
