19
Iteration:  2696
 C         4.420275        -1.759810         0.909264
 C         3.311447        -0.870956         0.554433
 O         2.028423        -1.409673         0.536781
 C         1.395688        -0.118685         0.182850
 C        -0.073263         0.059724         0.401596
 C         1.946419         0.289869        -1.224872
 C         3.222045         0.280555        -0.581083
 C         2.799203         0.498533         0.821634
 O         3.041223         1.588134         1.522884
 H         5.356219        -1.347156         1.282793
 H         3.979052        -2.227356         1.761877
 H         4.695276        -2.546268         0.216567
 H        -0.290559        -0.207505         1.417492
 H        -0.348544         1.127898         0.199554
 H        -0.476803        -0.655590        -0.313200
 H         1.759254        -0.435109        -1.981789
 H         1.402571         1.188453        -1.424234
 H         4.187561         0.463844        -0.965235
 H         3.132440         1.685064         2.512633
