19
Iteration:     4charge 0 multiplicity 1
 C         4.349480        -1.774022         0.797627
 C         3.296854        -0.830572         0.427465
 O         2.048384        -1.349640        -0.158053
 C         1.485810        -0.024640        -0.026432
 C        -0.006112        -0.026389         0.157674
 C         2.255375         0.780971        -1.104420
 C         3.487217         0.562804        -0.213584
 C         2.630289         0.377523         1.010366
 O         2.668884         1.017382         2.226056
 H         3.961711        -2.533638         1.555461
 H         4.727319        -2.364805        -0.078157
 H         5.110309        -1.235741         1.320966
 H        -0.399829        -0.605906         1.081203
 H        -0.446614         0.981060         0.276556
 H        -0.509837        -0.550927        -0.669710
 H         2.171084         0.231983        -2.190568
 H         1.834297         1.747334        -1.209187
 H         4.505117         0.871947        -0.294911
 H         2.351185         0.432044         2.962674
