19
Iteration:  1188
 C         4.348702        -1.634051         1.127077
 C         3.291765        -0.810291         0.422950
 O         2.028943        -1.369545        -0.187227
 C         1.348857        -0.052016        -0.081670
 C        -0.053604        -0.241563         0.307202
 C         2.177915         0.786813        -1.207719
 C         3.434004         0.625997        -0.310499
 C         2.656244         0.383813         0.877105
 O         2.859648         0.960238         2.182607
 H         4.118593        -1.784942         2.187603
 H         4.345593        -2.679329         0.563997
 H         5.266579        -1.029800         0.884172
 H        -0.308998        -0.101994         1.358980
 H        -0.678456         0.256366        -0.422665
 H        -0.240434        -1.311025         0.173590
 H         2.251663         0.341173        -2.210483
 H         1.597744         1.784248        -1.331692
 H         4.484954         0.959697        -0.408986
 H         3.263639         1.845089         2.090808
