19
Iteration:  2729
 C         4.474741        -1.550564         0.862658
 C         3.185941        -0.815433         0.597889
 O         1.874261        -1.437857         0.432593
 C         1.356708        -0.107545         0.184514
 C        -0.099839         0.061287         0.428799
 C         2.018407         0.115553        -1.281145
 C         3.331788         0.137339        -0.562785
 C         2.782088         0.583338         0.776496
 O         3.177534         1.586917         1.701258
 H         5.228214        -0.991063         0.366574
 H         4.636535        -1.531051         1.897990
 H         4.432362        -2.579371         0.572963
 H        -0.552727        -0.529381         1.204634
 H        -0.536360         1.042864         0.657312
 H        -0.740171        -0.204136        -0.414183
 H         1.946927        -0.726658        -1.947075
 H         1.614084         1.036030        -1.669961
 H         4.291404         0.252124        -1.030532
 H         3.025691         1.210410         2.575076
