19
Iteration:  2884charge 0 multiplicity 1
 C         4.474512        -1.728108         0.850946
 C         3.282853        -0.826044         0.488476
 O         1.991997        -1.515189         0.609084
 C         1.372463        -0.113446         0.271740
 C        -0.129545         0.158129         0.422171
 C         2.000804         0.179823        -1.253681
 C         3.338255         0.237855        -0.671232
 C         2.762732         0.534339         0.794995
 O         3.062827         1.572921         1.672114
 H         5.284424        -1.267052         1.366448
 H         4.001178        -2.327475         1.555365
 H         4.836825        -2.352237         0.059816
 H        -0.499523         0.693308         1.325464
 H        -0.288175         0.986462        -0.296069
 H        -0.698561        -0.722289         0.098167
 H         1.959735        -0.519030        -2.071021
 H         1.606731         1.122457        -1.673135
 H         4.336270         0.621602        -1.070591
 H         2.136466         1.972384         1.806951
