19
Iteration:  4923
 C         4.569252        -1.451244         0.844347
 C         3.223999        -0.877874         0.442472
 O         1.923381        -1.446664         0.137767
 C         1.419110        -0.074096         0.120035
 C        -0.032489         0.164130         0.196824
 C         2.135814         0.472612        -1.241646
 C         3.362608         0.360441        -0.462169
 C         2.693035         0.459660         0.900358
 O         2.836964         1.046175         2.174257
 H         4.997830        -1.463171        -0.177616
 H         5.094180        -0.887375         1.581617
 H         4.553342        -2.547382         1.119488
 H        -0.546662        -0.771468        -0.109915
 H        -0.478158         0.476238         1.172413
 H        -0.279082         1.072039        -0.409609
 H         2.054468        -0.183691        -2.068990
 H         1.818957         1.519550        -1.419735
 H         4.346487         0.685677        -0.649467
 H         2.579918         0.299518         2.803549
