19
Iteration:  2507charge 0 multiplicity 1
 C         4.385807        -1.853072         1.063455
 C         3.264687        -0.903183         0.412072
 O         1.963131        -1.469579         0.440169
 C         1.394358        -0.074763         0.157634
 C        -0.004280         0.048840         0.490502
 C         1.912361         0.313487        -1.174348
 C         3.306998         0.242148        -0.664397
 C         2.794096         0.524406         0.839211
 O         3.139682         1.700443         1.488698
 H         3.752748        -2.679290         1.508766
 H         5.055206        -2.327732         0.364628
 H         4.860031        -1.312642         1.914608
 H        -0.102365        -0.243557         1.556324
 H        -0.454718         1.026846         0.608623
 H        -0.782363        -0.514769        -0.113353
 H         1.705505        -0.465719        -1.916942
 H         1.438098         1.256998        -1.424681
 H         4.140474         0.894403        -0.852943
 H         2.873515         1.549477         2.419009
