19
Iteration:  4346charge 0 multiplicity 1
 C         4.232719        -1.712567         1.138324
 C         3.347416        -0.841344         0.370230
 O         2.097150        -1.438348         0.120321
 C         1.518820        -0.132666         0.032451
 C         0.064919        -0.075256         0.542400
 C         2.040336         0.500629        -1.238671
 C         3.405468         0.432873        -0.542769
 C         2.675546         0.551078         0.750674
 O         2.744244         1.286791         1.830787
 H         4.251543        -2.841135         0.934469
 H         5.199357        -1.379288         1.024548
 H         3.859946        -1.619120         2.179288
 H        -0.802251         0.048075        -0.113108
 H        -0.058469        -1.040580         1.095178
 H        -0.041077         0.797178         1.238064
 H         1.826253         0.138357        -2.242076
 H         1.854960         1.626025        -1.226211
 H         4.247280         1.197202        -0.700029
 H         3.543246         1.264659         2.372753
