19
Iteration:  1541
 C         4.415923        -1.789018         0.967718
 C         3.423801        -0.818617         0.389874
 O         2.112260        -1.458207         0.048680
 C         1.488098        -0.160145         0.149839
 C         0.045727         0.062520         0.362530
 C         2.008538         0.527961        -1.213883
 C         3.387460         0.581927        -0.528462
 C         2.677345         0.373816         0.906688
 O         2.574419         1.243747         2.021727
 H         4.601144        -1.582970         2.051259
 H         3.985548        -2.736227         1.040190
 H         5.407301        -1.848979         0.536348
 H        -0.232294        -0.004570         1.417165
 H        -0.046399         1.095601         0.055091
 H        -0.603298        -0.638166        -0.121524
 H         1.884617        -0.139396        -2.081296
 H         1.670195         1.523383        -1.382610
 H         4.271946         1.186339        -0.595089
 H         3.471432         1.671135         1.968140
