19
Iteration:  1168charge 0 multiplicity 1
 C         4.346143        -1.647528         1.072076
 C         3.319759        -0.831745         0.319403
 O         2.105687        -1.493350        -0.119721
 C         1.473234        -0.094732        -0.016451
 C        -0.037591        -0.115354         0.237725
 C         2.117964         0.844666        -1.035906
 C         3.412633         0.537576        -0.405219
 C         2.683200         0.327707         0.907108
 O         2.713711         1.019486         2.110145
 H         3.937355        -1.894651         2.097815
 H         4.834836        -2.675213         0.698267
 H         5.239672        -0.912049         1.184887
 H        -0.183521         0.155152         1.303432
 H        -0.526564         0.567693        -0.493640
 H        -0.482292        -1.119649         0.292105
 H         1.851745         0.661673        -2.101477
 H         1.713753         1.949401        -0.790442
 H         4.313757         1.147180        -0.482931
 H         3.172309         1.878798         1.919795
