19
Iteration:  4244
 C         4.497823        -1.643908         0.800259
 C         3.327708        -0.762781         0.500537
 O         1.951221        -1.446051         0.293962
 C         1.454906        -0.111446         0.139349
 C        -0.022345         0.122132         0.144352
 C         2.038982         0.323191        -1.174253
 C         3.343858         0.369587        -0.477543
 C         2.689639         0.558679         0.912309
 O         2.871848         1.182628         2.060918
 H         4.309773        -2.466602         0.209114
 H         5.483173        -1.233846         0.446095
 H         4.731823        -1.895792         1.821373
 H        -0.596687        -0.885464         0.039080
 H        -0.469022         0.651861         1.072431
 H        -0.172942         0.813874        -0.715220
 H         2.015293        -0.488852        -1.915059
 H         1.915112         1.259408        -1.690051
 H         4.235731         0.794018        -0.932518
 H         2.179057         1.837134         2.292504
