19
Iteration:   450charge 0 multiplicity 1
 C         4.556967        -1.738196         0.724221
 C         3.346383        -0.940042         0.377163
 O         2.084506        -1.477809        -0.275627
 C         1.458333        -0.122276        -0.001417
 C         0.013037         0.221647         0.230849
 C         2.149504         0.806499        -0.986289
 C         3.462656         0.549775        -0.180403
 C         2.644653         0.296892         1.015265
 O         2.419804         0.927030         2.248001
 H         4.259644        -2.387443         1.635334
 H         4.907283        -2.233214        -0.207254
 H         5.440478        -1.047435         1.031747
 H        -0.007549         1.359142         0.376192
 H        -0.677211         0.083539        -0.676790
 H        -0.334350        -0.230601         1.171913
 H         1.959078         0.540793        -2.075481
 H         1.883264         1.943728        -0.759442
 H         4.420894         0.956885        -0.347414
 H         3.253271         1.353861         2.566125
