19
Iteration:  4416
 C         4.522393        -1.549686         0.742576
 C         3.231371        -0.927585         0.604852
 O         1.940681        -1.568180         0.302922
 C         1.415891        -0.222024         0.085365
 C        -0.077259         0.173653         0.250390
 C         2.126364         0.371276        -1.277290
 C         3.299779         0.457928        -0.442581
 C         2.685955         0.467824         0.896722
 O         2.960482         1.341415         1.988014
 H         5.171040        -1.737179        -0.097211
 H         5.224969        -0.854564         1.366993
 H         4.375608        -2.446770         1.373644
 H        -0.669507        -0.193570        -0.574525
 H        -0.478385        -0.259441         1.114131
 H        -0.114202         1.232912         0.167603
 H         2.282077        -0.247277        -2.255812
 H         1.690995         1.311941        -1.612148
 H         4.279476         0.738613        -0.556662
 H         2.131969         1.260918         2.537732
