19
Iteration:  2068
 C         4.662415        -1.621143         0.833428
 C         3.145899        -0.957698         0.545556
 O         1.821147        -1.464124         0.428619
 C         1.394056        -0.106940         0.036310
 C         0.043272         0.253999         0.538313
 C         2.136943         0.314711        -1.337377
 C         3.321437         0.151428        -0.507761
 C         2.691236         0.488988         0.762593
 O         2.874252         1.394851         1.844664
 H         5.393069        -1.374487         0.024164
 H         5.022805        -1.322331         1.921665
 H         4.272685        -2.673469         0.742950
 H        -0.241589        -0.574280         1.192726
 H         0.153904         1.209378         1.096249
 H        -0.703605         0.294811        -0.261548
 H         2.010809        -0.317072        -2.280265
 H         1.978455         1.420123        -1.549766
 H         4.342978         0.301183        -0.852453
 H         2.657529         2.297480         1.578828
