19
Iteration:  1809
 C         4.308200        -1.686026         1.068870
 C         3.259148        -0.845715         0.488801
 O         2.062394        -1.484981         0.190695
 C         1.437359        -0.178541         0.074966
 C        -0.039237        -0.023279         0.417391
 C         1.949542         0.481978        -1.248967
 C         3.415055         0.441974        -0.599149
 C         2.755662         0.494612         0.819294
 O         2.910892         1.381718         1.908380
 H         5.324300        -1.171041         0.950270
 H         4.130011        -1.993836         2.156355
 H         4.578862        -2.584774         0.439856
 H        -0.378819        -1.114314         0.331570
 H        -0.219859         0.118779         1.528580
 H        -0.676426         0.567356        -0.307154
 H         1.673440        -0.156054        -2.174796
 H         1.609115         1.569634        -1.282197
 H         4.310224         0.873586        -0.984003
 H         3.813564         1.765221         1.930231
