19
Iteration:   106
 C         4.418920        -1.715200         0.767224
 C         3.202794        -0.931245         0.462933
 O         1.968839        -1.416542        -0.227102
 C         1.412164        -0.056601        -0.031626
 C        -0.071512         0.064501         0.070115
 C         2.299063         0.850953        -1.009940
 C         3.481291         0.608987        -0.158625
 C         2.652193         0.306761         1.039111
 O         2.795724         0.923991         2.241013
 H         4.255718        -2.429882         1.564597
 H         4.951684        -2.166784        -0.088029
 H         5.164451        -0.902222         1.187841
 H        -0.565420         1.064066        -0.041136
 H        -0.585304        -0.604285        -0.682160
 H        -0.525388        -0.291514         1.063880
 H         2.455956         0.430940        -2.100632
 H         1.935472         1.991346        -0.988597
 H         4.488775         1.048525        -0.318801
 H         2.217338         0.633028         2.937639
