19
Iteration:  1927
 C         4.389109        -1.643128         1.006774
 C         3.279462        -0.786447         0.407401
 O         2.024541        -1.489531         0.310322
 C         1.435116        -0.209368         0.141221
 C        -0.013128         0.177337         0.342418
 C         1.979756         0.329479        -1.269991
 C         3.292490         0.427979        -0.578086
 C         2.731991         0.502773         0.766666
 O         2.965445         1.210605         1.995276
 H         4.058955        -2.399208         1.706498
 H         4.797267        -2.157115         0.050085
 H         5.138535        -1.005687         1.476457
 H        -0.065686         0.099739         1.479872
 H        -0.148877         1.215880        -0.167410
 H        -0.648697        -0.656428        -0.147201
 H         1.801153        -0.385172        -2.072728
 H         1.676116         1.389149        -1.474468
 H         4.057867         1.060641        -1.011923
 H         3.124666         2.147195         1.911744
