19
Iteration:  1832
 C         4.353360        -1.772717         1.053610
 C         3.359989        -0.859778         0.355144
 O         2.091446        -1.445817         0.082040
 C         1.463307        -0.146216         0.192908
 C        -0.037578        -0.007851         0.489091
 C         1.934234         0.442647        -1.191257
 C         3.372791         0.369783        -0.492552
 C         2.702355         0.499780         0.835024
 O         2.823256         1.457773         1.849924
 H         5.225070        -1.421516         1.735581
 H         3.619544        -2.398019         1.610070
 H         4.939225        -2.473018         0.330170
 H        -0.511143        -1.025006         0.684891
 H        -0.110228         0.523029         1.466258
 H        -0.504874         0.495748        -0.415720
 H         2.080361        -0.260851        -2.059922
 H         1.787118         1.526634        -1.460336
 H         4.250713         0.937950        -0.852579
 H         3.571074         2.039552         1.572270
