19
Iteration:  4096
 C         4.427554        -1.621468         0.855488
 C         3.249086        -0.855249         0.518848
 O         1.974919        -1.441335         0.189027
 C         1.412257         0.017195         0.072468
 C        -0.047253         0.064423         0.331276
 C         2.120119         0.362127        -1.287885
 C         3.371621         0.369377        -0.452690
 C         2.652308         0.482155         0.900570
 O         2.899904         1.220294         2.044852
 H         5.083430        -2.000004        -0.007644
 H         5.049012        -1.005898         1.471148
 H         4.255664        -2.532397         1.484118
 H        -0.109604        -0.162867         1.405660
 H        -0.596895         0.976730        -0.017861
 H        -0.515673        -0.847602        -0.200616
 H         2.056344        -0.429783        -2.011262
 H         1.928570         1.371082        -1.707028
 H         4.369009         0.608428        -0.797814
 H         3.016312         2.174918         1.820791
