19
Iteration:  2688charge 0 multiplicity 1
 C         4.391188        -1.787772         0.942556
 C         3.280290        -0.859409         0.520166
 O         2.004127        -1.428658         0.477454
 C         1.471929        -0.122857         0.228287
 C        -0.062204         0.047001         0.506001
 C         1.918695         0.263772        -1.229114
 C         3.309692         0.339813        -0.606280
 C         2.787581         0.480102         0.804238
 O         3.030789         1.640825         1.493463
 H         5.225743        -1.464239         1.610132
 H         3.728753        -2.433384         1.720329
 H         4.704606        -2.448650         0.098617
 H        -0.336587        -0.182093         1.500483
 H        -0.268701         0.963256         0.028652
 H        -0.371602        -0.749472        -0.152010
 H         1.737149        -0.469653        -2.038309
 H         1.476131         1.264152        -1.519180
 H         4.314786         0.699713        -0.844932
 H         2.839516         1.553007         2.495571
