19
Iteration:  3912charge 0 multiplicity 1
 C         4.464005        -1.657670         0.734209
 C         3.252022        -0.805108         0.553185
 O         2.006582        -1.419049         0.231195
 C         1.475116         0.001162         0.078259
 C        -0.030189         0.078049         0.200511
 C         2.158296         0.402506        -1.313853
 C         3.398702         0.406025        -0.424771
 C         2.625644         0.518288         0.949651
 O         2.783418         1.066891         2.165591
 H         4.498511        -1.887016         1.838963
 H         4.404689        -2.527096         0.145832
 H         5.368194        -1.154367         0.391911
 H        -0.314320         0.961989         0.660057
 H        -0.354160         0.112399        -0.834520
 H        -0.365014        -0.830427         0.754298
 H         1.920504        -0.255342        -2.161508
 H         1.773713         1.434407        -1.551898
 H         4.453533         0.885629        -0.649303
 H         2.615388         2.007866         2.176895
