19
Iteration:  1452
 C         4.376388        -1.732009         0.927118
 C         3.350722        -0.692939         0.430128
 O         2.143813        -1.451732         0.172154
 C         1.470021        -0.203815         0.067467
 C         0.026243        -0.044843         0.211989
 C         2.048141         0.501730        -1.214349
 C         3.343227         0.557713        -0.500151
 C         2.622787         0.537318         0.900465
 O         2.785125         1.092597         2.112940
 H         5.391291        -1.331636         1.013828
 H         3.939347        -1.954858         1.883856
 H         4.307579        -2.537143         0.227240
 H        -0.358071        -0.114586         1.238963
 H        -0.258500         0.953366        -0.123742
 H        -0.601859        -0.772346        -0.291279
 H         1.992965         0.122302        -2.227663
 H         1.687990         1.523829        -1.168600
 H         4.319355         1.131081        -0.666544
 H         2.639413         2.078247         2.115683
