19
Iteration:  4621
 C         4.407370        -1.765497         0.733097
 C         3.253619        -0.814431         0.528210
 O         2.033339        -1.486348         0.236381
 C         1.395947        -0.123511         0.040509
 C        -0.094365        -0.105511         0.235017
 C         2.180192         0.503826        -1.233141
 C         3.454357         0.536200        -0.368206
 C         2.661768         0.471463         0.936752
 O         2.836729         1.408656         1.989327
 H         4.879189        -1.946555        -0.229704
 H         5.053623        -1.631785         1.643054
 H         3.977900        -2.600966         1.251243
 H        -0.656782        -0.601226        -0.581842
 H        -0.447914        -0.536973         1.121236
 H        -0.356171         1.034052         0.346396
 H         2.062599         0.142360        -2.229993
 H         1.834000         1.523284        -1.157001
 H         4.500636         0.926281        -0.667586
 H         2.892375         0.951200         2.857910
