19
Iteration:  4772charge 0 multiplicity 1
 C         4.574114        -1.572439         0.844542
 C         3.278674        -0.850673         0.524324
 O         1.938295        -1.439865         0.222172
 C         1.443861        -0.132735         0.068396
 C        -0.037929         0.116883         0.179382
 C         2.123667         0.516766        -1.192714
 C         3.392665         0.584321        -0.500657
 C         2.699588         0.412902         0.878552
 O         2.736700         1.049255         2.098676
 H         4.577468        -2.616296         0.460491
 H         5.428371        -1.135911         0.392837
 H         4.688726        -1.777002         1.915160
 H        -0.428668         0.286019        -0.814280
 H        -0.626159        -0.679291         0.596598
 H        -0.184309         1.145962         0.629587
 H         2.083662        -0.217784        -2.041004
 H         1.456008         1.368507        -1.563072
 H         4.424865         1.000045        -0.754482
 H         2.845033         0.413923         2.860738
