19
Iteration:   549
 C         4.370707        -1.815256         0.859877
 C         3.319715        -0.870463         0.378882
 O         2.106458        -1.443971        -0.183080
 C         1.429123        -0.091401        -0.027040
 C        -0.013971        -0.037556         0.166234
 C         2.180481         0.866250        -1.038553
 C         3.428653         0.669057        -0.244897
 C         2.618644         0.320012         1.009712
 O         2.703611         1.017798         2.167614
 H         3.869734        -2.382018         1.694939
 H         4.828458        -2.269989        -0.018727
 H         5.183052        -1.123689         1.343163
 H        -0.388602        -0.835311         0.874800
 H        -0.266687         1.004301         0.504413
 H        -0.532199        -0.082507        -0.854443
 H         1.994727         0.932124        -2.131637
 H         1.865919         1.979233        -0.653175
 H         4.392523         1.145882        -0.233191
 H         2.857604         0.394357         2.891551
