19
Iteration:  3142charge 0 multiplicity 1
 C         4.215058        -1.603426         1.273056
 C         3.241515        -0.854695         0.476162
 O         1.899125        -1.454864         0.242232
 C         1.440892        -0.080721         0.022339
 C         0.100334         0.073264         0.619390
 C         1.984489         0.288159        -1.373204
 C         3.395585         0.135527        -0.706785
 C         2.759959         0.489456         0.787063
 O         3.064787         1.460933         1.750377
 H         5.218688        -1.070940         1.156313
 H         3.996748        -1.467567         2.358748
 H         4.382822        -2.701717         1.053419
 H         0.312391         0.126674         1.669461
 H        -0.327109         1.045866         0.422106
 H        -0.502440        -0.822931         0.355071
 H         1.641958        -0.256921        -2.274619
 H         1.802943         1.337556        -1.685506
 H         4.337653         0.433624        -1.041783
 H         2.828703         2.344788         1.350124
