19
Iteration:  2363
 C         4.412639        -1.629163         1.004506
 C         3.220028        -0.795287         0.526229
 O         1.918090        -1.426914         0.472446
 C         1.306985        -0.074415         0.113273
 C        -0.118888         0.084360         0.447069
 C         1.991076         0.214951        -1.388942
 C         3.319009         0.171690        -0.631674
 C         2.743603         0.610396         0.712996
 O         3.207076         1.435762         1.812779
 H         4.455502        -1.712934         2.129884
 H         4.304510        -2.691678         0.582735
 H         5.230741        -1.038697         0.621733
 H        -0.434017        -0.472562         1.392094
 H        -0.183533         1.171465         0.704201
 H        -0.868257        -0.052139        -0.393269
 H         1.592697        -0.533205        -2.065179
 H         1.893288         1.243688        -1.822531
 H         4.353441         0.358011        -0.971169
 H         3.926791         1.044083         2.288412
