19
Iteration:  3155
 C         4.187191        -1.564039         1.299037
 C         3.217152        -0.895006         0.448040
 O         2.035044        -1.499731         0.275651
 C         1.464677        -0.025850         0.071190
 C         0.104207         0.182228         0.665527
 C         1.970986         0.251890        -1.313470
 C         3.378030         0.186847        -0.719681
 C         2.827900         0.513778         0.615399
 O         2.951647         1.362605         1.725669
 H         5.188579        -1.003783         1.478591
 H         3.620275        -1.713527         2.273032
 H         4.329655        -2.612623         0.839703
 H         0.072921        -0.158122         1.713413
 H        -0.300397         1.155516         0.506242
 H        -0.641528        -0.444820         0.168959
 H         1.714732        -0.540692        -2.039414
 H         1.697010         1.337797        -1.545119
 H         4.332675         0.588631        -1.118097
 H         3.170166         2.222594         1.328811
