19
Iteration:  4154
 C         4.254784        -1.858564         1.191538
 C         3.392226        -0.866065         0.453900
 O         2.025838        -1.418850        -0.018584
 C         1.478666        -0.154289         0.055193
 C         0.084187        -0.075709         0.542663
 C         1.957963         0.623622        -1.246502
 C         3.458114         0.438817        -0.541365
 C         2.718405         0.405717         0.813073
 O         2.839014         1.382263         1.850520
 H         5.164153        -2.114851         0.732769
 H         4.432594        -1.185265         2.064892
 H         3.591275        -2.634869         1.446440
 H        -0.107861        -0.999854         1.159347
 H        -0.007368         0.640447         1.364511
 H        -0.801730         0.008336        -0.260787
 H         1.667388         0.214114        -2.226927
 H         1.728025         1.647437        -1.226465
 H         4.418848         1.021834        -0.649387
 H         2.718599         2.262156         1.477912
