19
Iteration:  1396
 C         4.446510        -1.426066         0.945355
 C         3.151277        -0.840992         0.497279
 O         1.963793        -1.455812        -0.028657
 C         1.338105        -0.097891        -0.091314
 C        -0.102850        -0.135560         0.231746
 C         2.226744         0.518405        -1.200790
 C         3.440490         0.419722        -0.330395
 C         2.595447         0.456506         0.957442
 O         2.966573         1.095966         2.141636
 H         5.193277        -1.588558         0.175328
 H         5.066660        -0.799016         1.630655
 H         4.305243        -2.405923         1.461967
 H        -0.173412        -1.130794         0.740895
 H        -0.194804         0.719787         0.935247
 H        -0.899440         0.085103        -0.530589
 H         2.191444         0.147627        -2.203436
 H         1.829576         1.568677        -1.276555
 H         4.459200         0.807499        -0.420414
 H         2.948861         2.051083         1.996471
