19
Iteration:  4131
 C         4.230911        -1.835933         1.084310
 C         3.258241        -0.792154         0.485418
 O         2.093598        -1.483844         0.080875
 C         1.464826        -0.037796         0.073614
 C         0.066605        -0.085669         0.545236
 C         2.127100         0.523891        -1.268283
 C         3.382587         0.483414        -0.541728
 C         2.669484         0.532405         0.777551
 O         2.860598         1.302347         1.884626
 H         5.034054        -2.091283         0.403900
 H         4.657287        -1.465203         1.974715
 H         3.567589        -2.668193         1.280438
 H        -0.006014        -0.844404         1.325397
 H        -0.295652         0.809517         1.075776
 H        -0.672569        -0.409326        -0.313893
 H         1.952544         0.020335        -2.209999
 H         1.800421         1.532665        -1.338986
 H         4.368603         0.730176        -0.841902
 H         2.702448         2.272902         1.745900
