19
Iteration:  3426
 C         4.339745        -1.812506         0.933890
 C         3.275695        -0.879605         0.533979
 O         1.985798        -1.410851         0.184264
 C         1.398288        -0.058491         0.118503
 C         0.014966         0.045310         0.400556
 C         2.080672         0.361868        -1.236769
 C         3.429846         0.295781        -0.467342
 C         2.725280         0.495228         0.913433
 O         2.890669         1.469090         1.848394
 H         3.957797        -2.820969         0.637505
 H         5.325403        -1.645067         0.473478
 H         4.442746        -1.808152         2.052871
 H        -0.472065         1.042175         0.183468
 H        -0.434891        -0.659261        -0.310936
 H        -0.271850        -0.250563         1.463741
 H         1.850406        -0.176246        -2.188094
 H         1.837028         1.416213        -1.506719
 H         4.390530         0.744001        -0.561563
 H         2.945988         2.297937         1.313357
