19
Iteration:  3762charge 0 multiplicity 1
 C         4.437300        -1.695860         0.870846
 C         3.345616        -0.838403         0.358563
 O         2.005198        -1.413795         0.066995
 C         1.442052        -0.051683         0.035432
 C        -0.012793         0.180821         0.497577
 C         2.193538         0.547713        -1.291003
 C         3.512942         0.410745        -0.481931
 C         2.664043         0.441379         0.837448
 O         2.647436         0.998926         2.189274
 H         4.238754        -2.776541         0.670148
 H         5.392873        -1.409250         0.452105
 H         4.378479        -1.479450         1.921103
 H        -0.522849         0.925243        -0.133722
 H        -0.475895        -0.808822         0.365240
 H        -0.056187         0.590847         1.571246
 H         2.019803        -0.131260        -2.154663
 H         1.803086         1.536536        -1.477676
 H         4.442222         0.889506        -0.926682
 H         2.112018         1.793457         2.121382
