19
Iteration:  2640charge 0 multiplicity 1
 C         4.305924        -1.733152         1.073546
 C         3.230318        -0.861629         0.534985
 O         1.891414        -1.465076         0.333643
 C         1.460712        -0.032197         0.125508
 C         0.101336         0.029788         0.835463
 C         2.083928         0.304379        -1.441952
 C         3.369714         0.224177        -0.614002
 C         2.738962         0.552100         0.700556
 O         2.939499         1.555881         1.519840
 H         4.653793        -1.286135         2.021341
 H         4.036016        -2.714318         1.281761
 H         5.106735        -1.684175         0.306108
 H         0.417682         0.043910         1.892716
 H        -0.515409         0.837124         0.399417
 H        -0.327020        -0.967736         0.691822
 H         1.810080        -0.518310        -2.090921
 H         1.845072         1.265623        -1.839744
 H         4.318880         0.726578        -0.902691
 H         2.633775         1.493004         2.428683
