19
Iteration:   773
 C         4.552459        -1.544182         0.928315
 C         3.329320        -0.872562         0.335166
 O         2.063037        -1.462609        -0.078865
 C         1.489557        -0.077859         0.041123
 C        -0.005878         0.075498         0.181664
 C         2.129167         0.621608        -1.126748
 C         3.394496         0.626759        -0.383501
 C         2.647879         0.313650         0.996262
 O         2.566796         0.865624         2.231470
 H         4.227403        -1.967495         1.879650
 H         4.843940        -2.293869         0.104016
 H         5.377074        -0.817604         1.115544
 H        -0.194310         1.095901         0.664157
 H        -0.468261         0.078447        -0.869279
 H        -0.488342        -0.689470         0.899383
 H         1.958323         0.106921        -2.141327
 H         1.837754         1.733377        -1.093163
 H         4.361917         1.201811        -0.466379
 H         2.783303         1.807083         2.229384
