19
Iteration:   735charge 0 multiplicity 1
 C         4.354873        -1.704299         0.756189
 C         3.337713        -0.679063         0.474827
 O         2.113322        -1.373238        -0.019999
 C         1.445860        -0.052086        -0.008516
 C        -0.033529        -0.100750         0.176291
 C         2.223547         0.614381        -1.259708
 C         3.443713         0.611869        -0.300819
 C         2.613564         0.450616         0.969728
 O         2.698734         0.936257         2.340007
 H         4.008257        -2.458535         1.456626
 H         4.735893        -2.139952        -0.102153
 H         5.307553        -1.318549         1.109388
 H        -0.591654         0.749987        -0.122672
 H        -0.495937        -0.937699        -0.299121
 H        -0.112692        -0.273476         1.210362
 H         2.204982         0.116788        -2.187416
 H         2.017251         1.630271        -1.390824
 H         4.303056         1.167412        -0.576816
 H         1.772001         1.205777         2.525044
