19
Iteration:  3776
 C         4.336407        -1.760103         1.028732
 C         3.266382        -0.801133         0.310601
 O         2.035620        -1.435928        -0.047478
 C         1.473847        -0.060772        -0.042454
 C         0.045388         0.072803         0.563011
 C         2.173967         0.547573        -1.296363
 C         3.455594         0.578586        -0.569436
 C         2.682391         0.422008         0.955503
 O         2.693045         1.045353         2.150538
 H         4.001653        -2.766158         0.927966
 H         5.318473        -1.714753         0.467046
 H         4.657408        -1.615979         2.055497
 H        -0.623547         0.796371        -0.088975
 H        -0.597028        -0.804706         0.796052
 H         0.158855         0.450216         1.587096
 H         2.286951         0.101225        -2.292152
 H         1.905407         1.605682        -1.459476
 H         4.522180         0.701551        -0.758114
 H         2.267274         1.940531         2.143815
