19
Iteration:  1359charge 0 multiplicity 1
 C         4.406603        -1.782530         1.024202
 C         3.383104        -0.774661         0.405856
 O         2.089647        -1.419741        -0.017896
 C         1.484117        -0.079640         0.019070
 C         0.010096        -0.074821         0.273321
 C         2.066891         0.576888        -1.156355
 C         3.388202         0.579300        -0.459691
 C         2.702019         0.452532         0.907651
 O         2.691612         1.127733         2.100702
 H         4.251170        -2.739502         0.486398
 H         5.404582        -1.294456         1.131217
 H         4.021563        -1.903090         2.060548
 H        -0.253243        -1.135144         0.578883
 H        -0.244376         0.431414         1.242103
 H        -0.659959         0.124462        -0.619920
 H         1.834084         0.046473        -2.113791
 H         1.664682         1.597241        -1.046141
 H         4.306787         1.156322        -0.658403
 H         2.653402         2.059865         1.871260
