19
Iteration:  1275
 C         4.556514        -1.567508         0.795221
 C         3.257278        -0.871669         0.409314
 O         2.083898        -1.546355        -0.045932
 C         1.441699        -0.093793        -0.017762
 C        -0.052735         0.004126         0.259488
 C         2.207762         0.580380        -1.070329
 C         3.408496         0.420582        -0.302211
 C         2.608163         0.379171         1.019565
 O         2.592399         1.190134         2.152890
 H         4.499111        -2.236324         1.626776
 H         4.872570        -2.369761         0.005912
 H         5.338235        -0.777835         0.938005
 H        -0.544574        -0.630880         1.016263
 H        -0.163231         1.052484         0.585176
 H        -0.570583         0.204923        -0.695351
 H         2.147711         0.214573        -2.069400
 H         1.898984         1.674735        -1.123862
 H         4.403535         0.711481        -0.507283
 H         2.928141         2.064962         1.828432
