19
Iteration:  1892charge 0 multiplicity 1
 C         4.465844        -1.638287         0.874426
 C         3.288291        -0.893234         0.457815
 O         1.986090        -1.430205         0.274521
 C         1.407136        -0.039639         0.093407
 C         0.001554         0.156187         0.486164
 C         2.089430         0.280146        -1.270953
 C         3.434479         0.314183        -0.533377
 C         2.733651         0.506342         0.815061
 O         2.779218         1.295690         1.962940
 H         4.550157        -1.825041         1.945786
 H         4.197133        -2.632990         0.367208
 H         5.353329        -1.299699         0.351387
 H        -0.215316        -0.510213         1.329249
 H        -0.135172         1.198023         0.936819
 H        -0.713454        -0.146674        -0.348590
 H         1.990084        -0.414180        -2.165167
 H         1.878273         1.278339        -1.682806
 H         4.357086         0.664536        -0.961558
 H         2.215821         2.050253         1.795379
