19
Iteration:  3294charge 0 multiplicity 1
 C         4.232799        -1.869675         1.224044
 C         3.271901        -0.809621         0.525887
 O         1.941505        -1.368046         0.290884
 C         1.405327         0.031028         0.042054
 C        -0.039655        -0.119931         0.513802
 C         2.033291         0.275150        -1.413772
 C         3.337079         0.322020        -0.597320
 C         2.840675         0.566263         0.764708
 O         3.078750         1.555835         1.791317
 H         5.301965        -1.514278         1.208704
 H         3.997773        -2.056020         2.295910
 H         4.175100        -2.833210         0.631324
 H         0.035605        -0.818599         1.409140
 H        -0.587925         0.802879         0.867730
 H        -0.739096        -0.511782        -0.343079
 H         1.920149        -0.596270        -2.116537
 H         1.810663         1.258462        -1.870541
 H         4.342971         0.522922        -1.046686
 H         3.213052         2.453397         1.365439
