19
Iteration:  3431
 C         4.355274        -1.859379         0.952744
 C         3.246604        -0.839057         0.489166
 O         1.977643        -1.444858         0.154559
 C         1.417423        -0.096667         0.102649
 C        -0.032854         0.023358         0.419090
 C         2.075408         0.431915        -1.186112
 C         3.428962         0.277190        -0.451087
 C         2.755147         0.461377         0.890423
 O         2.900548         1.539109         1.843929
 H         3.903311        -2.834151         0.804012
 H         5.358227        -1.710204         0.531429
 H         4.415702        -1.770109         2.022670
 H        -0.379510         1.014201         0.033441
 H        -0.427630        -0.799523        -0.249207
 H        -0.316047        -0.188262         1.419347
 H         2.021470        -0.171285        -2.099509
 H         1.753153         1.482665        -1.307931
 H         4.407468         0.791412        -0.624047
 H         3.028376         2.335769         1.323560
