19
Iteration:   147
 C         4.279747        -1.823154         0.774360
 C         3.267020        -0.725745         0.393648
 O         2.068950        -1.247186        -0.110576
 C         1.401263         0.048598         0.019979
 C        -0.098602        -0.097414        -0.073666
 C         2.198634         0.769428        -1.079309
 C         3.487823         0.629301        -0.323280
 C         2.671507         0.468569         1.069185
 O         2.837890         0.820406         2.480289
 H         3.846289        -2.655153         1.388410
 H         4.718025        -2.323778        -0.102896
 H         4.997583        -1.402633         1.521134
 H        -0.611043         0.697411        -0.759460
 H        -0.310885        -1.051116        -0.613224
 H        -0.659746        -0.054808         0.908315
 H         2.115687         0.117716        -2.039458
 H         1.942047         1.692125        -1.337893
 H         4.511422         1.067253        -0.605758
 H         3.220017        -0.043076         2.796899
