19
Iteration:  2265charge 0 multiplicity 1
 C         4.436990        -1.777773         0.892908
 C         3.214025        -0.894895         0.501548
 O         1.820720        -1.495073         0.418712
 C         1.428355         0.015020         0.119204
 C         0.034125         0.263412         0.674788
 C         2.070529         0.172550        -1.342825
 C         3.483089         0.269894        -0.593000
 C         2.806488         0.480523         0.751264
 O         2.916597         1.505151         1.723201
 H         3.970661        -2.637638         1.485822
 H         4.858252        -2.023141        -0.165038
 H         5.006722        -1.012131         1.431196
 H         0.356199         0.469483         1.725779
 H        -0.593185         1.052242         0.309306
 H        -0.464755        -0.691050         0.587027
 H         1.788152        -0.654380        -2.040508
 H         1.775059         1.168441        -1.829474
 H         4.451208         0.212771        -1.045257
 H         2.139805         2.052999         1.656229
