19
Iteration:  1422
 C         4.507766        -1.526215         0.981911
 C         3.280314        -0.821323         0.444350
 O         2.005793        -1.430542         0.124349
 C         1.405482        -0.038266         0.124581
 C        -0.104353        -0.056787         0.144125
 C         2.101769         0.517149        -1.237386
 C         3.323443         0.517678        -0.516001
 C         2.727135         0.428877         0.950922
 O         2.834239         1.026536         2.165543
 H         5.514480        -1.265748         0.507276
 H         4.646485        -1.237244         1.997518
 H         4.369998        -2.629522         0.869143
 H        -0.506635        -0.863508         0.713394
 H        -0.570643         0.884487         0.311504
 H        -0.406000        -0.363830        -0.824752
 H         1.982814        -0.076142        -2.225195
 H         1.732349         1.491264        -1.517520
 H         4.349764         0.853862        -0.821572
 H         3.310142         1.849620         2.083641
