19
Iteration:  1212charge 0 multiplicity 1
 C         4.256091        -1.606930         0.930889
 C         3.284957        -0.714393         0.427221
 O         2.086356        -1.314929        -0.087955
 C         1.366801        -0.011954        -0.027867
 C        -0.017701        -0.277169         0.209853
 C         2.196630         0.558909        -1.270008
 C         3.430010         0.596013        -0.339996
 C         2.623020         0.494440         0.924979
 O         2.916480         0.936798         2.332445
 H         4.011732        -1.708334         2.031150
 H         3.862751        -2.578429         0.444967
 H         5.283738        -1.261699         0.651740
 H        -0.187118        -0.197463         1.285225
 H        -0.634907         0.444051        -0.354306
 H        -0.305463        -1.307263         0.003889
 H         2.158814        -0.014482        -2.216390
 H         1.947094         1.657294        -1.526589
 H         4.309286         1.123490        -0.592375
 H         2.605022         1.863214         2.532850
