19
Iteration:  1627
 C         4.468199        -1.666195         1.019194
 C         3.324040        -0.847402         0.479942
 O         2.043686        -1.468516         0.065823
 C         1.399765        -0.191898         0.084153
 C        -0.071092         0.010991         0.268080
 C         1.966940         0.457610        -1.167359
 C         3.354613         0.414671        -0.479091
 C         2.743884         0.452925         0.900069
 O         2.890279         1.403218         1.936947
 H         4.076837        -2.373481         1.817362
 H         5.011444        -2.161704         0.277372
 H         5.101864        -0.950964         1.551884
 H        -0.597571        -0.978406         0.176911
 H        -0.357534         0.503566         1.232865
 H        -0.373683         0.680413        -0.538442
 H         1.755342        -0.024806        -2.126546
 H         1.805976         1.511293        -1.282215
 H         4.307035         0.816330        -0.760711
 H         2.859861         0.896725         2.770532
