19
Iteration:    89
 C         4.513488        -1.773447         0.823794
 C         3.322124        -0.923080         0.325901
 O         2.041554        -1.358009        -0.284688
 C         1.476764        -0.009447         0.011667
 C        -0.021715         0.125107         0.147666
 C         2.160379         0.816481        -1.028392
 C         3.441242         0.461196        -0.191033
 C         2.581389         0.220180         1.082542
 O         2.655297         1.047152         2.240745
 H         4.139147        -2.507021         1.564771
 H         4.911443        -2.311681        -0.052221
 H         5.328423        -1.219078         1.131129
 H        -0.068919         1.185235         0.297200
 H        -0.450219        -0.173548        -0.790329
 H        -0.396348        -0.436388         0.956632
 H         2.011892         0.525068        -2.001077
 H         1.992103         1.846135        -0.832854
 H         4.437996         0.810892        -0.073275
 H         2.024103         0.685764         2.860292
