19
Iteration:    20
 C         4.303343        -1.849290         0.733073
 C         3.262943        -0.782477         0.424249
 O         2.056391        -1.288363        -0.214302
 C         1.497653         0.065577        -0.006610
 C        -0.006833        -0.099301         0.308904
 C         2.309952         0.678273        -1.208809
 C         3.592834         0.576293        -0.235886
 C         2.652567         0.440934         1.043556
 O         2.515907         1.044835         2.302887
 H         3.831021        -2.577532         1.340886
 H         4.592108        -2.305831        -0.202293
 H         5.288141        -1.512447         1.187571
 H        -0.031987        -0.265843         1.331054
 H        -0.574722         0.752588        -0.051336
 H        -0.313584        -0.997874        -0.258615
 H         2.345324         0.030960        -1.986480
 H         2.123240         1.777586        -1.553626
 H         4.696729         0.796831        -0.384451
 H         2.296614         0.291460         2.888362
