19
Iteration:   356
 C         4.247954        -1.872982         0.939484
 C         3.288920        -0.818752         0.337814
 O         2.075288        -1.304208        -0.270389
 C         1.484227        -0.089569         0.013532
 C        -0.068780        -0.100280         0.038611
 C         2.147105         0.885114        -0.987536
 C         3.479974         0.716810        -0.258684
 C         2.702544         0.351292         1.035163
 O         2.832366         0.837008         2.336150
 H         3.594336        -2.554970         1.455124
 H         4.707235        -2.459382         0.141795
 H         4.968274        -1.220133         1.551806
 H        -0.400269         0.911189        -0.256214
 H        -0.242838        -0.675449        -0.875724
 H        -0.340460        -0.425315         1.087474
 H         1.846533         0.433578        -2.068686
 H         1.894466         1.954157        -0.869529
 H         4.276855         1.320898        -0.545903
 H         2.563981         1.759758         2.339375
