19
Iteration:  1547
 C         4.416263        -1.753878         0.955710
 C         3.457283        -0.836869         0.359101
 O         2.142703        -1.458642         0.066639
 C         1.473768        -0.084412         0.193929
 C         0.035960         0.059375         0.324893
 C         2.033646         0.483813        -1.242798
 C         3.334032         0.548244        -0.473639
 C         2.691948         0.384733         0.882840
 O         2.602416         1.234634         2.045484
 H         4.416447        -1.489250         2.019780
 H         3.778495        -2.728640         0.895071
 H         5.413369        -1.873846         0.495788
 H        -0.373205        -0.084745         1.361011
 H        -0.208015         1.162516         0.211635
 H        -0.671409        -0.564270        -0.298687
 H         1.982336        -0.275118        -2.032392
 H         1.471185         1.452069        -1.441193
 H         4.225082         1.215434        -0.668923
 H         3.495810         1.594729         2.091737
