19
Iteration:  1696
 C         4.414682        -1.660787         0.961495
 C         3.241314        -0.857782         0.509741
 O         2.028314        -1.393254         0.116818
 C         1.507663        -0.048094         0.069349
 C         0.125885        -0.058957         0.512635
 C         2.077381         0.426490        -1.329349
 C         3.420276         0.224658        -0.531180
 C         2.728670         0.482383         0.871010
 O         2.709707         1.399895         1.929840
 H         4.352118        -2.662389         0.551679
 H         5.400499        -1.141636         0.630508
 H         4.303124        -1.747404         2.050983
 H        -0.718575        -0.155182        -0.198999
 H        -0.144371        -0.845726         1.255613
 H        -0.180724         0.813307         1.158849
 H         1.592920        -0.110870        -2.166921
 H         1.972284         1.552099        -1.514057
 H         4.365972         0.757365        -0.849885
 H         1.830003         1.780672         1.996576
