19
Iteration:  4434charge 0 multiplicity 1
 C         4.522987        -1.691750         0.782402
 C         3.244467        -0.855032         0.552166
 O         1.997125        -1.506780         0.208730
 C         1.367082        -0.117037         0.109874
 C        -0.062042         0.077421         0.175688
 C         2.033159         0.336874        -1.161773
 C         3.402504         0.437293        -0.405193
 C         2.717029         0.444446         0.965818
 O         2.931536         1.411185         1.974439
 H         4.914993        -1.685726        -0.277724
 H         5.234351        -1.105476         1.293133
 H         4.473912        -2.578556         1.406096
 H        -0.640438        -0.679435        -0.396097
 H        -0.458147         0.023289         1.255114
 H        -0.186352         1.161790        -0.275330
 H         1.740505        -0.300563        -1.966824
 H         1.634071         1.351880        -1.453364
 H         4.361193         0.764597        -0.871064
 H         2.136881         1.430037         2.566401
