19
Iteration:  4543charge 0 multiplicity 1
 C         4.401002        -1.534836         1.080192
 C         3.272244        -0.827233         0.441619
 O         2.038362        -1.490256         0.093609
 C         1.457626        -0.155569        -0.026878
 C         0.093692         0.098777         0.433446
 C         2.045943         0.551080        -1.310154
 C         3.335989         0.405767        -0.511725
 C         2.712790         0.444824         0.790161
 O         2.808121         1.149282         2.005356
 H         4.344748        -2.651545         0.879444
 H         5.370803        -1.101480         0.887803
 H         4.260152        -1.611765         2.197744
 H        -0.529638        -0.158131        -0.432519
 H        -0.009442        -0.653290         1.254952
 H        -0.240477         1.088114         0.892333
 H         1.962563         0.137897        -2.272303
 H         1.699185         1.596028        -1.194555
 H         4.221971         0.884131        -0.719533
 H         2.314252         0.569156         2.581187
