19
Iteration:  4990
 C         4.280341        -1.737665         1.034164
 C         3.275064        -0.829444         0.355900
 O         2.039456        -1.417374        -0.072048
 C         1.445077        -0.032525         0.000248
 C         0.022212        -0.142448         0.447503
 C         2.112678         0.605586        -1.289146
 C         3.436902         0.510765        -0.459252
 C         2.718511         0.486308         0.909263
 O         2.799431         1.257551         2.078843
 H         4.006728        -2.726611         0.667906
 H         5.369445        -1.686618         0.871984
 H         4.113887        -1.892701         2.108637
 H        -0.531238        -0.741083        -0.308588
 H         0.057427        -0.699224         1.358713
 H        -0.473786         0.859573         0.775454
 H         2.169812         0.090520        -2.203922
 H         1.683887         1.626282        -1.302449
 H         4.341653         1.163656        -0.430831
 H         3.116487         0.686393         2.784991
