19
Iteration:  1100charge 0 multiplicity 1
 C         4.336128        -1.598661         0.568805
 C         3.165938        -0.784058         0.630246
 O         2.008252        -1.376920         0.104964
 C         1.527622        -0.108034        -0.008328
 C        -0.004123        -0.084871         0.280273
 C         2.366556         0.493473        -1.257617
 C         3.502686         0.564351        -0.321306
 C         2.621937         0.511922         0.966997
 O         2.583094         1.040307         2.223118
 H         4.099619        -2.678896         0.734036
 H         4.991891        -1.643771        -0.450060
 H         5.107184        -1.501078         1.409366
 H        -0.124943        -0.013622         1.394493
 H        -0.471207         0.786836        -0.163939
 H        -0.397130        -1.073573         0.009742
 H         2.769638        -0.298746        -1.911237
 H         2.219923         1.442130        -1.968284
 H         4.527822         0.900673        -0.499536
 H         2.368264         1.975179         2.331010
