19
Iteration:  3265
 C         4.170952        -1.842245         1.005485
 C         3.332930        -0.740854         0.593280
 O         1.956728        -1.431422         0.426019
 C         1.447300        -0.163352         0.167697
 C        -0.046216         0.006486         0.352924
 C         2.023910         0.194395        -1.160255
 C         3.357269         0.284051        -0.563461
 C         2.847893         0.609985         0.767395
 O         3.045672         1.593341         1.662507
 H         5.100815        -1.480155         1.392730
 H         3.655755        -2.655854         1.513662
 H         4.648650        -2.273235         0.130015
 H        -0.527984        -0.810228         0.911213
 H        -0.158511         0.936947         0.835366
 H        -0.540145         0.065888        -0.560669
 H         1.891127        -0.490072        -1.986456
 H         1.836290         1.261184        -1.357576
 H         4.325297         0.686604        -0.990444
 H         2.895333         2.434347         1.177903
