19
Iteration:  4932
 C         4.632029        -1.499185         0.838832
 C         3.231614        -0.844956         0.421180
 O         1.924629        -1.421870         0.186164
 C         1.424670        -0.006482         0.065848
 C        -0.048739         0.176961         0.156384
 C         2.083762         0.501772        -1.190935
 C         3.391640         0.390121        -0.510530
 C         2.644772         0.359611         0.949450
 O         2.821386         1.018288         2.168437
 H         5.395963        -1.603425        -0.023568
 H         5.079400        -0.789363         1.528804
 H         4.379323        -2.429645         1.461262
 H        -0.650604        -0.694699        -0.155219
 H        -0.353720         0.350505         1.254458
 H        -0.333869         0.972622        -0.484506
 H         2.106194        -0.156380        -2.029935
 H         1.617694         1.369102        -1.565151
 H         4.366127         0.542855        -0.936265
 H         2.900222         0.398933         2.950077
