19
Iteration:   871
 C         4.420659        -1.886925         0.774754
 C         3.343586        -0.753073         0.433508
 O         2.179424        -1.373751         0.031760
 C         1.576106        -0.081336         0.055866
 C         0.023467        -0.177271         0.229302
 C         2.097636         0.612045        -1.173184
 C         3.405880         0.600544        -0.310634
 C         2.626122         0.471027         0.998706
 O         2.477406         1.227238         2.129306
 H         3.737905        -2.623581         1.029467
 H         4.979248        -2.179903        -0.138771
 H         5.132980        -1.688365         1.534404
 H        -0.357312        -0.663204         1.156490
 H        -0.339655         0.862809         0.323622
 H        -0.436734        -0.717343        -0.625548
 H         2.189838         0.216654        -2.121578
 H         1.727773         1.656507        -1.156961
 H         4.336325         1.021367        -0.660860
 H         3.358761         1.484426         2.417992
