19
Iteration:  3983charge 0 multiplicity 1
 C         4.229471        -1.763065         1.158312
 C         3.262971        -0.899218         0.408869
 O         2.072825        -1.351237        -0.077159
 C         1.470278        -0.050741        -0.001523
 C         0.040844        -0.168859         0.669587
 C         2.096183         0.636228        -1.242149
 C         3.489623         0.499696        -0.518078
 C         2.704069         0.441863         0.775838
 O         2.767633         1.210290         1.914476
 H         3.525440        -2.527481         1.474046
 H         5.191035        -2.195926         0.650424
 H         4.522267        -1.200816         2.081023
 H        -0.106083         0.485303         1.584379
 H        -0.657868         0.219280        -0.085842
 H        -0.198870        -1.187077         0.818093
 H         2.182645         0.211123        -2.256810
 H         1.731594         1.679661        -1.323618
 H         4.489019         0.805800        -0.573160
 H         3.118590         2.052957         1.638595
