19
Iteration:   169
 C         4.263453        -1.825301         0.837100
 C         3.338016        -0.761175         0.333887
 O         2.100169        -1.345907        -0.175279
 C         1.478351        -0.020661         0.062466
 C        -0.080290        -0.026711        -0.014503
 C         2.104834         0.844365        -1.035918
 C         3.442937         0.674225        -0.239804
 C         2.750208         0.328414         1.054549
 O         2.760571         0.886956         2.310028
 H         3.650513        -2.553160         1.421810
 H         4.640861        -2.439186         0.005926
 H         4.970089        -1.487864         1.640229
 H        -0.479550         0.817076        -0.709814
 H        -0.271613        -0.969332        -0.579025
 H        -0.596096         0.015806         0.990696
 H         2.077804         0.469618        -2.121388
 H         1.846764         1.806162        -1.051952
 H         4.441205         1.227669        -0.290333
 H         3.147340         0.340205         2.995451
