19
Iteration:   529
 C         4.338011        -1.807696         0.787348
 C         3.227705        -0.858780         0.393775
 O         2.034694        -1.344589        -0.204474
 C         1.441598         0.055631        -0.022290
 C         0.007108        -0.190420         0.191674
 C         2.269609         0.848653        -1.089188
 C         3.469708         0.617182        -0.183255
 C         2.650761         0.394519         1.022075
 O         2.669174         1.000974         2.248469
 H         3.766730        -2.595216         1.396145
 H         4.707773        -2.262081        -0.189187
 H         5.135734        -1.187817         1.397988
 H         0.042625        -0.579701         1.246418
 H        -0.562598         0.741501         0.031527
 H        -0.377489        -0.905162        -0.618483
 H         2.326705         0.356130        -2.063735
 H         1.726663         1.907366        -1.304909
 H         4.473407         1.092701        -0.188248
 H         3.402927         0.664399         2.814905
