19
Iteration:  3886
 C         4.474422        -1.675211         0.702969
 C         3.248517        -0.782563         0.513322
 O         1.947189        -1.470145         0.245020
 C         1.380638        -0.125906         0.004347
 C        -0.195947         0.010854         0.031703
 C         2.165666         0.436822        -1.161253
 C         3.459807         0.504214        -0.450991
 C         2.784486         0.560142         1.060249
 O         2.903844         1.135534         2.273509
 H         4.473406        -1.836000         1.752537
 H         4.256330        -2.615173         0.114251
 H         5.376992        -1.243264         0.240729
 H        -0.392019         1.221386        -0.116445
 H        -0.539596        -0.476009        -0.975339
 H        -0.557267        -0.360375         0.996853
 H         2.176066        -0.329980        -1.946351
 H         1.585441         1.318952        -1.598514
 H         4.302157         0.911404        -0.885072
 H         2.660613         2.056140         2.171270
