19
Iteration:  1898
 C         4.466693        -1.682034         0.893960
 C         3.308671        -0.857481         0.472006
 O         2.001419        -1.422419         0.262875
 C         1.426772        -0.084028         0.102884
 C        -0.048623         0.207006         0.439646
 C         2.056121         0.302584        -1.267238
 C         3.373401         0.363319        -0.550949
 C         2.800637         0.477296         0.843879
 O         2.787767         1.262882         1.959408
 H         4.483408        -1.819858         1.997499
 H         4.306989        -2.579755         0.345535
 H         5.359327        -1.128569         0.502558
 H        -0.083810        -0.448985         1.333450
 H        -0.126033         1.196567         0.800494
 H        -0.645123        -0.229753        -0.324128
 H         1.906395        -0.596553        -1.879643
 H         1.730256         1.209464        -1.800765
 H         4.340660         0.603776        -1.052094
 H         2.264330         2.065047         1.746987
