19
Iteration:  1595charge 0 multiplicity 1
 C         4.473752        -1.539449         0.868724
 C         3.226669        -0.816206         0.523570
 O         1.907147        -1.454754         0.279902
 C         1.363148        -0.040240        -0.034057
 C        -0.020746        -0.064477         0.252566
 C         2.136430         0.528310        -1.282362
 C         3.397742         0.379338        -0.422703
 C         2.692227         0.447864         0.891779
 O         2.836764         1.213688         2.017325
 H         4.536568        -1.643920         2.015874
 H         4.648877        -2.442969         0.394846
 H         5.303755        -0.877311         0.598682
 H        -0.214129        -1.115411         0.578154
 H        -0.520010         0.541321         1.010963
 H        -0.636121        -0.018601        -0.642301
 H         2.061907         0.020076        -2.241010
 H         2.254106         1.564796        -1.454779
 H         4.441812         0.539910        -0.529767
 H         3.742078         0.990050         2.378183
