19
Iteration:  2316charge 0 multiplicity 1
 C         4.269217        -1.813017         1.150076
 C         3.289102        -0.937139         0.408433
 O         1.971072        -1.469359         0.252310
 C         1.416819        -0.087429         0.200587
 C        -0.032838         0.068738         0.649568
 C         1.948714         0.357954        -1.206200
 C         3.360324         0.231202        -0.661694
 C         2.841564         0.496017         0.739140
 O         3.118879         1.648883         1.576523
 H         3.685367        -2.268473         1.919711
 H         4.568612        -2.643404         0.525004
 H         5.068834        -1.208179         1.548296
 H        -0.216032        -0.388963         1.648586
 H        -0.335034         1.178362         0.711177
 H        -0.605373        -0.398397        -0.170426
 H         1.755952        -0.276730        -2.092905
 H         1.671521         1.364686        -1.429821
 H         4.222032         0.691870        -1.112062
 H         2.411187         1.728173         2.248045
