19
Iteration:  2460charge 0 multiplicity 1
 C         4.301685        -1.835550         1.037491
 C         3.288810        -0.911942         0.477268
 O         1.875789        -1.387786         0.308905
 C         1.407532        -0.044192         0.073596
 C         0.126037         0.010473         0.779029
 C         2.059350         0.259704        -1.338281
 C         3.402779         0.209132        -0.607033
 C         2.770263         0.497782         0.817312
 O         2.937851         1.711977         1.545517
 H         3.824609        -2.446319         1.750715
 H         4.639090        -2.479103         0.202267
 H         5.032058        -1.227578         1.494291
 H         0.290632         0.147364         1.912313
 H        -0.512564         0.942583         0.636977
 H        -0.598865        -0.834700         0.511010
 H         1.811804        -0.494454        -2.091246
 H         2.100679         1.300601        -1.745826
 H         4.255210         0.525314        -1.231698
 H         2.629886         1.608934         2.433543
