19
Iteration:   348
 C         4.249095        -1.794201         0.939677
 C         3.274022        -0.862210         0.338366
 O         2.052894        -1.360307        -0.257330
 C         1.438271        -0.016534        -0.006903
 C        -0.022194        -0.108876         0.032514
 C         2.160719         0.932473        -1.005285
 C         3.433706         0.670066        -0.231843
 C         2.720285         0.321736         1.021911
 O         2.839792         0.839644         2.323296
 H         3.795581        -2.588507         1.591081
 H         4.828465        -2.342709         0.144260
 H         5.013388        -1.281897         1.502637
 H        -0.505951         0.887331        -0.015287
 H        -0.505798        -0.702219        -0.811206
 H        -0.494955        -0.575981         0.917761
 H         2.214308         0.690336        -2.164723
 H         1.839610         1.939033        -0.847051
 H         4.429342         1.217167        -0.220474
 H         2.825841         1.806519         2.216114
