19
Iteration:  1074
 C         4.501367        -1.761688         0.631146
 C         3.336347        -0.770858         0.522813
 O         2.027690        -1.400874         0.151984
 C         1.519049        -0.069452         0.063487
 C        -0.034830        -0.035667         0.127770
 C         2.193662         0.558996        -1.236955
 C         3.429100         0.547690        -0.337726
 C         2.623792         0.435262         1.033597
 O         2.571791         1.126377         2.227730
 H         4.126112        -2.738307         1.000105
 H         4.981121        -1.959709        -0.237666
 H         5.241023        -1.501630         1.335344
 H        -0.283797        -0.439928         1.087598
 H        -0.451965         0.951224        -0.036590
 H        -0.437298        -0.759707        -0.566025
 H         2.282251        -0.088325        -2.113431
 H         1.902156         1.475137        -1.535513
 H         4.445191         0.952978        -0.391587
 H         2.540594         2.087924         2.178453
