19
Iteration:  2174
 C         4.312369        -1.634088         1.094618
 C         3.158503        -0.916825         0.494125
 O         1.975787        -1.481387         0.269601
 C         1.369655        -0.014174         0.108209
 C        -0.121778         0.020094         0.526633
 C         1.987668         0.409167        -1.240476
 C         3.347630         0.175701        -0.578810
 C         2.748582         0.477433         0.830633
 O         3.230711         1.437134         1.681052
 H         4.549989        -1.134224         2.041983
 H         4.308353        -2.702903         1.373225
 H         5.223615        -1.456209         0.470745
 H        -0.138112        -0.588712         1.431630
 H        -0.385630         1.043503         0.937152
 H        -0.865824        -0.259880        -0.248264
 H         1.731874        -0.077576        -2.198101
 H         1.968049         1.456907        -1.451073
 H         4.272605         0.356609        -1.179046
 H         3.171102         2.298604         1.219608
