19
Iteration:  2678
 C         4.313955        -1.836858         0.999214
 C         3.335017        -0.849074         0.494198
 O         1.963943        -1.479637         0.405887
 C         1.432530        -0.109749         0.240147
 C         0.018165        -0.000645         0.556604
 C         1.923757         0.244600        -1.219833
 C         3.384993         0.329476        -0.593391
 C         2.778296         0.563280         0.752452
 O         3.027541         1.695513         1.514036
 H         5.099042        -1.287047         1.571914
 H         3.833004        -2.753642         1.546433
 H         4.858325        -2.275179         0.115356
 H        -0.339970         0.053685         1.575827
 H        -0.442239         0.892050         0.184322
 H        -0.573352        -0.792983         0.085549
 H         1.685888        -0.510709        -2.011434
 H         1.653132         1.293039        -1.540351
 H         4.280667         0.845076        -0.977290
 H         2.617739         1.443254         2.401353
