19
Iteration:  4111charge 0 multiplicity 1
 C         4.373735        -1.724557         0.977933
 C         3.242961        -0.821360         0.384762
 O         1.939509        -1.381605         0.140411
 C         1.417151        -0.078639        -0.034443
 C        -0.060877        -0.073053         0.481061
 C         2.119379         0.408246        -1.319475
 C         3.479143         0.388277        -0.490437
 C         2.773067         0.508931         0.899478
 O         2.866547         1.318487         2.068420
 H         5.052928        -1.998294         0.231383
 H         4.983240        -1.222313         1.749681
 H         3.853050        -2.589546         1.280345
 H        -0.185098        -0.468915         1.518516
 H        -0.318046         0.987782         0.516428
 H        -0.820273        -0.662776        -0.160652
 H         2.061100        -0.356645        -2.137728
 H         1.823012         1.368743        -1.671577
 H         4.437339         0.862021        -0.712792
 H         2.847429         2.236660         1.690566
