19
Iteration:  3623
 C         4.261731        -1.837792         1.038513
 C         3.281134        -0.835975         0.417858
 O         1.962571        -1.423888        -0.060630
 C         1.509075        -0.029266         0.025747
 C         0.040288        -0.041522         0.410967
 C         2.067268         0.550191        -1.260264
 C         3.349241         0.531295        -0.419587
 C         2.743654         0.461563         0.907625
 O         2.916499         1.221830         2.045697
 H         5.125472        -1.309002         1.510635
 H         3.715004        -2.403034         1.921935
 H         4.659713        -2.582702         0.304303
 H         0.060812         0.159464         1.508149
 H        -0.733685         0.561893        -0.035787
 H        -0.310603        -1.095407         0.458939
 H         2.090034        -0.033824        -2.208846
 H         1.786547         1.625716        -1.390063
 H         4.338216         0.967604        -0.705439
 H         2.942479         2.199670         1.847099
