19
Iteration:  1833
 C         4.348937        -1.779716         1.048597
 C         3.358961        -0.863736         0.361741
 O         2.085599        -1.444806         0.083685
 C         1.457886        -0.155665         0.198320
 C        -0.024258        -0.002132         0.493201
 C         1.941154         0.451626        -1.195438
 C         3.380719         0.374440        -0.486033
 C         2.698622         0.498633         0.824661
 O         2.819388         1.457329         1.846028
 H         5.213484        -1.412077         1.753485
 H         3.667706        -2.436048         1.593707
 H         4.978759        -2.452709         0.323951
 H        -0.481311        -1.016954         0.698332
 H        -0.155259         0.526076         1.456156
 H        -0.546411         0.479087        -0.388191
 H         2.064503        -0.295990        -2.063017
 H         1.777997         1.517844        -1.482030
 H         4.269390         0.972710        -0.847541
 H         3.550589         2.079778         1.564880
