19
Iteration:  4845charge 0 multiplicity 1
 C         4.215454        -1.901637         0.906854
 C         3.365009        -0.837039         0.459264
 O         2.061567        -1.409373        -0.029331
 C         1.500598        -0.095125         0.068475
 C         0.046509        -0.300255         0.455836
 C         2.123431         0.782398        -1.190924
 C         3.443900         0.475733        -0.419015
 C         2.731885         0.429918         0.937277
 O         2.704910         1.454054         1.905950
 H         4.720251        -2.707390         0.276751
 H         4.995705        -1.463813         1.505685
 H         3.450270        -2.575483         1.464709
 H        -0.510829        -0.292428        -0.507825
 H        -0.143383        -1.196462         1.222528
 H        -0.245427         0.657513         0.852077
 H         2.012249         0.563125        -2.241891
 H         2.045127         1.876153        -1.020967
 H         4.439207         0.984890        -0.615712
 H         2.619937         1.241201         2.842240
