19
Iteration:  4163charge 0 multiplicity 1
 C         4.321307        -1.838138         1.216063
 C         3.327336        -0.881012         0.339294
 O         2.037226        -1.478126        -0.063321
 C         1.473324        -0.121433         0.085361
 C        -0.006187        -0.070649         0.595953
 C         2.067316         0.586306        -1.212482
 C         3.409298         0.442087        -0.541019
 C         2.704172         0.492242         0.821648
 O         2.831098         1.388011         1.864774
 H         5.328971        -2.253190         0.890260
 H         4.556839        -1.227937         2.060354
 H         3.683802        -2.666932         1.541201
 H        -0.269352        -1.034520         0.971975
 H        -0.093175         0.732451         1.332590
 H        -0.787381         0.137410        -0.260941
 H         1.845428         0.236195        -2.213713
 H         1.795820         1.614985        -1.072100
 H         4.398380         0.750988        -0.800093
 H         2.858857         2.277257         1.483882
