19
Iteration:  3602
 C         4.350803        -1.688866         0.910897
 C         3.234136        -0.800099         0.418660
 O         2.027383        -1.463627         0.068034
 C         1.421167        -0.118837        -0.006927
 C        -0.026888         0.135167         0.509570
 C         2.155090         0.477145        -1.284992
 C         3.466823         0.453067        -0.483060
 C         2.627081         0.429065         0.861921
 O         2.840331         1.107594         2.086125
 H         4.707678        -1.017225         1.717932
 H         3.797179        -2.467031         1.546408
 H         5.124256        -1.955358         0.157842
 H         0.005993         0.116144         1.631238
 H        -0.299110         1.116858         0.167549
 H        -0.807333        -0.525314         0.168441
 H         2.211383        -0.127516        -2.208036
 H         1.913475         1.520682        -1.625453
 H         4.544643         0.774244        -0.631032
 H         2.944195         2.048628         1.923094
