19
Iteration:  3319
 C         4.245261        -1.588149         1.193334
 C         3.145063        -0.814200         0.515989
 O         1.929665        -1.506856         0.248357
 C         1.438243        -0.020345         0.060388
 C         0.026050         0.013932         0.538463
 C         2.074016         0.351022        -1.308447
 C         3.428986         0.244098        -0.573251
 C         2.713753         0.483858         0.718814
 O         3.057974         1.344189         1.719018
 H         5.208992        -1.298178         0.797183
 H         4.349903        -1.261190         2.235069
 H         4.169621        -2.668905         1.148163
 H         0.032288        -0.048702         1.666832
 H        -0.464858         0.949435         0.296346
 H        -0.636430        -0.692936         0.029362
 H         1.925305        -0.183641        -2.239605
 H         1.757490         1.411478        -1.334685
 H         4.473612         0.545461        -0.780581
 H         3.291757         2.240863         1.382521
