19
Iteration:   755
 C         4.439535        -1.668141         0.840293
 C         3.344717        -0.738487         0.434406
 O         2.121994        -1.462878         0.035887
 C         1.451040        -0.155624        -0.007244
 C         0.011170         0.031344         0.171507
 C         2.124430         0.695995        -1.179315
 C         3.418722         0.677602        -0.355177
 C         2.650572         0.447389         0.924074
 O         2.628244         0.824776         2.267687
 H         4.072504        -2.232113         1.756189
 H         4.825433        -2.255373        -0.073308
 H         5.375762        -1.060469         1.123122
 H        -0.170072         1.132848         0.154929
 H        -0.434684        -0.339843        -0.774253
 H        -0.348868        -0.403607         1.100753
 H         2.214432         0.045851        -2.150126
 H         1.473423         1.550430        -1.313897
 H         4.385875         1.094336        -0.586321
 H         2.087384         1.622062         2.401275
