19
Iteration:  3384
 C         4.369593        -1.575263         0.938274
 C         3.259685        -0.769902         0.451121
 O         1.917724        -1.441747         0.441686
 C         1.461362        -0.100045         0.040833
 C        -0.046145         0.257117         0.396653
 C         2.138620         0.137075        -1.422428
 C         3.434616         0.310837        -0.637470
 C         2.734569         0.538621         0.769067
 O         2.891417         1.180678         2.062896
 H         4.704571        -2.213669         0.108394
 H         5.070170        -0.798240         1.336428
 H         4.120308        -2.198116         1.810259
 H         0.120712         1.242675         1.035164
 H        -0.656268         0.423294        -0.526032
 H        -0.497551        -0.546444         1.084587
 H         2.013679        -0.691352        -2.125231
 H         1.749108         1.149109        -1.762384
 H         4.408612         0.536556        -0.988389
 H         2.560138         2.123917         1.960298
