19
Iteration:  3893
 C         4.452529        -1.643834         0.702369
 C         3.255748        -0.743691         0.509461
 O         1.952053        -1.437623         0.246027
 C         1.322545        -0.116894        -0.009703
 C        -0.108329         0.027743         0.054037
 C         2.167312         0.429735        -1.164867
 C         3.434949         0.455410        -0.457838
 C         2.810956         0.546994         0.998405
 O         2.854804         1.122787         2.317092
 H         4.757598        -1.970367         1.731118
 H         4.277583        -2.612180         0.129815
 H         5.387013        -1.239270         0.277949
 H        -0.262570         1.099747         0.150351
 H        -0.581828        -0.263504        -0.857850
 H        -0.619022        -0.509176         0.862585
 H         2.245542        -0.421064        -1.909415
 H         1.597733         1.215754        -1.627884
 H         4.422335         0.693476        -0.945647
 H         2.603037         2.016674         2.051147
