19
Iteration:  3195charge 0 multiplicity 1
 C         4.384967        -1.578363         1.161572
 C         3.172825        -0.916522         0.499804
 O         1.969445        -1.531021         0.420234
 C         1.425695        -0.052857         0.057701
 C         0.120902         0.348359         0.535358
 C         1.958672         0.108953        -1.429492
 C         3.345865         0.218808        -0.661755
 C         2.753183         0.502605         0.726675
 O         2.900012         1.404711         1.775912
 H         4.964075        -0.868544         1.730120
 H         4.043525        -2.455189         1.653649
 H         5.191598        -1.912694         0.499372
 H        -0.229527        -0.401025         1.232050
 H         0.206239         1.349953         1.037173
 H        -0.693594         0.394701        -0.268273
 H         1.844436        -0.796506        -2.038705
 H         1.673096         1.050700        -1.855478
 H         4.226120         0.505649        -1.132590
 H         3.676395         2.017032         1.755617
