19
Iteration:  1113charge 0 multiplicity 1
 C         4.441559        -1.684983         0.678088
 C         3.256252        -0.764157         0.521308
 O         2.000129        -1.443721         0.050552
 C         1.428562        -0.032009        -0.024783
 C         0.013115        -0.044477         0.331008
 C         2.416443         0.490663        -1.348434
 C         3.432679         0.610809        -0.233916
 C         2.603430         0.464586         0.967155
 O         2.606621         1.046739         2.230343
 H         4.021237        -2.677242         0.882612
 H         4.965490        -1.621916        -0.378561
 H         5.128325        -1.253417         1.483177
 H        -0.120450         0.205925         1.425104
 H        -0.594224         0.666114        -0.284976
 H        -0.463424        -1.024835         0.099567
 H         2.297799        -0.262707        -2.126880
 H         1.903690         1.503854        -1.663120
 H         4.536182         0.816195        -0.219656
 H         2.274691         1.949548         2.043714
