19
Iteration:  3883charge 0 multiplicity 1
 C         4.472995        -1.686576         0.705455
 C         3.249682        -0.805037         0.509318
 O         1.955518        -1.469876         0.244009
 C         1.419141        -0.129621         0.031072
 C        -0.217961         0.011620         0.006473
 C         2.139041         0.438355        -1.177441
 C         3.450557         0.532284        -0.423387
 C         2.755475         0.543061         1.060243
 O         2.931728         1.143737         2.247377
 H         4.411298        -1.825249         1.791267
 H         4.230656        -2.662346         0.126460
 H         5.372841        -1.210739         0.285526
 H        -0.481237         1.139455        -0.176092
 H        -0.541672        -0.573072        -0.868008
 H        -0.574510        -0.288603         1.009334
 H         2.131588        -0.299829        -2.040006
 H         1.731502         1.406678        -1.544157
 H         4.365285         1.012442        -0.822717
 H         2.701396         2.103009         2.287506
