19
Iteration:  1917
 C         4.467858        -1.691610         0.971030
 C         3.307571        -0.873612         0.455002
 O         2.022396        -1.492057         0.276852
 C         1.431793        -0.088433         0.150769
 C         0.029671         0.181542         0.394648
 C         1.931785         0.261413        -1.291421
 C         3.336752         0.501580        -0.620683
 C         2.706019         0.521443         0.795989
 O         2.898025         1.224424         2.015842
 H         4.046879        -2.205443         1.832564
 H         4.707262        -2.479218         0.199514
 H         5.355627        -1.094282         1.192269
 H        -0.503108         0.137227         1.404959
 H        -0.037903         1.292712         0.103751
 H        -0.478866        -0.478387        -0.383303
 H         1.877900        -0.432412        -2.112015
 H         1.418842         1.206061        -1.615184
 H         4.312353         0.843598        -0.994869
 H         2.806480         2.176659         1.864181
