19
Iteration:   988
 C         4.217535        -1.589102         1.088394
 C         3.271270        -0.698470         0.385839
 O         2.107412        -1.360225        -0.090125
 C         1.440181        -0.026902         0.017942
 C         0.008898        -0.266158         0.298471
 C         2.148666         0.620911        -1.288074
 C         3.474330         0.610575        -0.462411
 C         2.663078         0.552790         0.888857
 O         2.819275         0.860278         2.241789
 H         3.788244        -1.666438         2.162570
 H         4.197902        -2.551606         0.533084
 H         5.174783        -1.102154         1.066993
 H        -0.166287        -1.246345         0.620901
 H        -0.225942         0.287185         1.180402
 H        -0.719407        -0.056619        -0.469079
 H         2.164707        -0.086336        -2.176595
 H         1.879984         1.654089        -1.547081
 H         4.473221         0.936288        -0.878678
 H         2.689731         1.823017         2.359933
