19
Iteration:   318
 C         4.398832        -1.621071         0.856785
 C         3.178426        -0.891383         0.448620
 O         1.934935        -1.327228        -0.266604
 C         1.415942         0.003065        -0.087565
 C        -0.064570        -0.098745         0.084875
 C         2.344031         0.866233        -1.030059
 C         3.482525         0.489359        -0.185974
 C         2.585731         0.308108         1.031330
 O         2.754672         0.842611         2.313557
 H         4.435979        -2.428459         1.623064
 H         4.784115        -1.926860        -0.127596
 H         5.139732        -0.972706         1.201098
 H        -0.343473         0.794658         0.655586
 H        -0.684036        -0.212345        -0.812291
 H        -0.338398        -0.942188         0.653373
 H         2.401396         0.649862        -2.008349
 H         2.291011         1.966030        -0.945377
 H         4.487674         1.082698        -0.148869
 H         3.452513         1.501582         2.171858
