19
Iteration:  2830
 C         4.311120        -1.691239         1.044912
 C         3.192317        -0.856257         0.522668
 O         1.954276        -1.499714         0.392375
 C         1.360912        -0.138812         0.084043
 C         0.031078         0.072357         0.755261
 C         2.126088         0.272763        -1.355285
 C         3.423264         0.310236        -0.685969
 C         2.788560         0.510005         0.687057
 O         2.853922         1.547682         1.628192
 H         5.226606        -1.328627         0.575398
 H         4.436726        -1.399038         2.069313
 H         4.248235        -2.746735         0.766162
 H         0.337922         0.005875         1.818284
 H        -0.599289         0.932995         0.672480
 H        -0.680179        -0.745536         0.663180
 H         1.951341        -0.414155        -2.184225
 H         1.785039         1.250548        -1.771876
 H         4.542299         0.414521        -0.819267
 H         3.777305         1.958262         1.670303
