19
Iteration:  4903
 C         4.489307        -1.597521         0.758995
 C         3.219533        -0.836017         0.483113
 O         1.985723        -1.493719         0.127114
 C         1.412138        -0.064804        -0.032130
 C        -0.056006         0.096671         0.295826
 C         2.154904         0.481329        -1.203448
 C         3.474935         0.490149        -0.384688
 C         2.633203         0.429289         0.921426
 O         2.848687         1.131702         2.100451
 H         5.295930        -1.512866         0.055559
 H         4.759386        -1.159551         1.720649
 H         4.192672        -2.556287         1.083734
 H        -0.696909        -0.743471         0.016776
 H        -0.211949         0.177686         1.351061
 H        -0.466527         1.084057        -0.133357
 H         2.130395        -0.130771        -2.136544
 H         1.723145         1.491630        -1.460359
 H         4.475374         0.765352        -0.625946
 H         2.280231         0.823323         2.847628
