19
Iteration:  4218
 C         4.459093        -1.607670         0.852604
 C         3.258612        -0.798008         0.522180
 O         1.953727        -1.519637         0.306868
 C         1.414660        -0.094893         0.024658
 C        -0.140670         0.094975         0.255059
 C         2.126577         0.398168        -1.291719
 C         3.419135         0.428348        -0.539967
 C         2.771013         0.491861         0.912730
 O         2.849613         1.177326         2.090022
 H         4.733139        -2.290616        -0.003560
 H         5.295654        -0.941259         1.067638
 H         4.405691        -2.166512         1.790579
 H        -0.533157        -0.871329         0.523159
 H        -0.242939         0.676924         1.157531
 H        -0.732355         0.647604        -0.536582
 H         2.049959        -0.413442        -2.041525
 H         1.874116         1.332300        -1.755014
 H         4.425642         0.833954        -0.819128
 H         2.932684         2.147184         1.882223
