19
Iteration:   870charge 0 multiplicity 1
 C         4.416392        -1.892071         0.774219
 C         3.351493        -0.753522         0.434010
 O         2.187618        -1.373002         0.029712
 C         1.576364        -0.078984         0.059081
 C         0.021935        -0.178943         0.229582
 C         2.093830         0.610202        -1.174094
 C         3.401784         0.603095        -0.317330
 C         2.626244         0.480990         1.001413
 O         2.476124         1.224504         2.132783
 H         3.724323        -2.644164         1.044116
 H         4.957198        -2.183595        -0.122084
 H         5.110291        -1.693822         1.541561
 H        -0.356029        -0.635739         1.131613
 H        -0.334423         0.833061         0.293619
 H        -0.437153        -0.725693        -0.599385
 H         2.141153         0.211779        -2.147917
 H         1.743765         1.657359        -1.145273
 H         4.376627         1.033377        -0.669432
 H         3.358161         1.479739         2.425887
