19
Iteration:  4031
 C         4.394825        -1.690460         0.949392
 C         3.248318        -0.809095         0.525052
 O         1.997980        -1.375368         0.109175
 C         1.430082        -0.095027         0.111490
 C        -0.051687        -0.021585         0.251711
 C         2.087355         0.433129        -1.193656
 C         3.408568         0.434869        -0.477909
 C         2.695666         0.528427         0.891980
 O         2.936686         1.141705         2.026655
 H         4.148821        -2.736937         0.667631
 H         5.131436        -1.270784         0.363349
 H         4.723836        -1.493604         1.971907
 H        -0.309325         0.524612         1.204258
 H        -0.672731         0.593025        -0.493082
 H        -0.628506        -1.032398         0.409492
 H         1.896782        -0.252260        -1.995103
 H         1.881687         1.463335        -1.510723
 H         4.341032         0.908907        -0.915255
 H         2.746333         2.105476         1.863645
