19
Iteration:  2474charge 0 multiplicity 1
 C         4.250524        -1.895687         1.061598
 C         3.226535        -0.870826         0.529809
 O         2.023028        -1.500323         0.283183
 C         1.443843        -0.038109         0.143776
 C         0.005892         0.042610         0.776202
 C         2.004488         0.337384        -1.238837
 C         3.436605         0.186985        -0.627711
 C         2.792889         0.608707         0.659924
 O         2.953242         1.737058         1.482043
 H         3.659712        -2.671034         1.643781
 H         4.794783        -2.445285         0.277017
 H         5.076294        -1.534528         1.716711
 H         0.181378        -0.156414         1.861569
 H        -0.550734         0.955126         0.465031
 H        -0.559185        -0.903813         0.477575
 H         1.734084        -0.295185        -2.094471
 H         1.616387         1.351225        -1.438968
 H         4.436268         0.535164        -0.821522
 H         2.833789         1.383288         2.422409
