19
Iteration:  4295charge 0 multiplicity 1
 C         4.350547        -1.647810         1.015220
 C         3.295929        -0.806497         0.452584
 O         1.982208        -1.442126         0.083255
 C         1.475185        -0.058091         0.034353
 C        -0.004082        -0.065794         0.489561
 C         2.097258         0.442637        -1.237557
 C         3.521249         0.357222        -0.510671
 C         2.618278         0.470389         0.874028
 O         2.823000         1.305958         1.954636
 H         3.907994        -2.651425         0.765010
 H         5.366900        -1.696141         0.461088
 H         4.466572        -1.575551         2.100647
 H        -0.575005        -0.579386        -0.285468
 H        -0.087974        -0.708303         1.310398
 H        -0.524240         0.928854         0.583885
 H         1.905126        -0.034514        -2.245400
 H         1.816905         1.494485        -1.358034
 H         4.511541         0.908515        -0.614910
 H         2.843490         2.226304         1.695006
