19
Iteration:  2555charge 0 multiplicity 1
 C         4.484352        -1.538986         0.930028
 C         3.142760        -0.877375         0.494233
 O         1.850951        -1.462577         0.609016
 C         1.382937        -0.033743         0.042028
 C        -0.041328         0.147919         0.492981
 C         1.942092         0.082713        -1.368474
 C         3.309360         0.220271        -0.568998
 C         2.747245         0.589425         0.744644
 O         3.218671         1.445405         1.689136
 H         4.521334        -2.191614         1.867480
 H         4.984646        -2.140731         0.110682
 H         5.146339        -0.636830         1.215814
 H        -0.505760        -0.342401         1.275883
 H        -0.351116         1.194971         0.657241
 H        -0.618826        -0.117898        -0.360927
 H         1.695123        -0.661074        -2.142807
 H         1.679200         1.111937        -1.681987
 H         4.297309         0.468525        -1.040438
 H         3.196798         0.952486         2.563522
