19
Iteration:   625charge 0 multiplicity 1
 C         4.424676        -1.681988         0.759872
 C         3.228949        -0.744716         0.471569
 O         2.056504        -1.334772        -0.048061
 C         1.462878        -0.036272        -0.068460
 C        -0.005336        -0.050810         0.270098
 C         2.319383         0.657693        -1.223550
 C         3.482468         0.572458        -0.320445
 C         2.629963         0.466464         0.921467
 O         2.528699         0.820975         2.340861
 H         4.053800        -2.481273         1.392895
 H         4.553238        -2.211915        -0.133613
 H         5.235811        -0.977168         1.031254
 H        -0.518174        -0.511021        -0.611540
 H        -0.240107        -0.658382         1.160409
 H        -0.241960         0.994392         0.546421
 H         2.401016         0.265310        -2.217743
 H         1.876057         1.643793        -1.391854
 H         4.492732         1.034293        -0.440713
 H         3.263543         1.360929         2.688292
