19
Iteration:  4740charge 0 multiplicity 1
 C         4.488559        -1.476022         0.856978
 C         3.278437        -0.769659         0.424169
 O         2.026489        -1.484920         0.178018
 C         1.419773        -0.057389        -0.000817
 C        -0.050093         0.151017         0.244556
 C         2.149345         0.474572        -1.231927
 C         3.444509         0.392958        -0.559564
 C         2.623324         0.455465         0.911429
 O         2.717946         1.000932         2.230419
 H         4.445177        -2.348839         0.171136
 H         5.484559        -1.011771         0.855436
 H         4.392133        -1.749180         1.901545
 H        -0.614287        -0.290317        -0.551194
 H        -0.392218        -0.177527         1.200831
 H        -0.181556         1.285627         0.244793
 H         2.106715        -0.317529        -2.024542
 H         1.697914         1.443381        -1.587739
 H         4.451913         0.848608        -0.869999
 H         3.211695         0.445006         2.822789
