19
Iteration:  1531charge 0 multiplicity 1
 C         4.442090        -1.808818         1.012722
 C         3.319278        -0.815192         0.443951
 O         2.092866        -1.494298         0.027035
 C         1.490459        -0.205909        -0.014251
 C         0.060183         0.050026         0.461022
 C         2.035893         0.580147        -1.164351
 C         3.434662         0.543994        -0.479469
 C         2.688319         0.443856         0.885178
 O         2.570243         1.239450         1.972636
 H         4.784455        -1.492274         2.010562
 H         4.122432        -2.824487         0.972953
 H         5.303504        -1.758633         0.322982
 H        -0.042460         0.120408         1.530207
 H        -0.277372         0.931351        -0.047406
 H        -0.537274        -0.688399        -0.033781
 H         1.836724         0.198441        -2.194726
 H         1.712491         1.612809        -1.167799
 H         4.348938         1.013221        -0.774104
 H         3.246976         1.939695         2.074900
