19
Iteration:   816charge 0 multiplicity 1
 C         4.406835        -1.595746         0.931257
 C         3.253128        -0.891542         0.415001
 O         2.045815        -1.440708        -0.137980
 C         1.471826        -0.058868        -0.086873
 C         0.018856        -0.170076         0.328543
 C         2.196344         0.774995        -1.179892
 C         3.493247         0.546342        -0.300753
 C         2.598958         0.392209         0.982110
 O         2.604972         1.061937         2.140418
 H         4.208477        -2.181026         1.802454
 H         4.771731        -2.242333         0.107660
 H         5.130034        -0.881439         1.265764
 H        -0.124872         0.241320         1.351438
 H        -0.749158         0.258879        -0.351486
 H        -0.305914        -1.251564         0.410954
 H         2.367206         0.334323        -2.130320
 H         1.824532         1.825633        -1.271435
 H         4.400934         1.201893        -0.190797
 H         3.548662         1.220572         2.315896
