19
Iteration:  2903charge 0 multiplicity 1
 C         4.456845        -1.662510         0.911905
 C         3.265437        -0.878747         0.586548
 O         1.899616        -1.400462         0.570614
 C         1.416107        -0.164733         0.126159
 C         0.038168         0.129420         0.354027
 C         1.879364         0.134932        -1.239041
 C         3.292597         0.241659        -0.542738
 C         2.740000         0.564844         0.764084
 O         3.132313         1.538748         1.599408
 H         5.125185        -1.042647         1.523205
 H         4.241413        -2.564635         1.462966
 H         4.970049        -1.759020        -0.049515
 H        -0.177390         0.256348         1.423013
 H        -0.411347         1.044327        -0.144350
 H        -0.598085        -0.762154         0.049599
 H         1.569157        -0.497643        -2.071604
 H         1.502923         1.141167        -1.478550
 H         4.263356         0.584347        -1.054653
 H         2.715044         1.455065         2.520498
