19
Iteration:  2901charge 0 multiplicity 1
 C         4.449793        -1.667116         0.899508
 C         3.291788        -0.871699         0.566803
 O         1.903898        -1.402979         0.587858
 C         1.420106        -0.184937         0.142622
 C         0.032377         0.142826         0.349575
 C         1.890857         0.150604        -1.241953
 C         3.288664         0.246300        -0.536310
 C         2.730414         0.561989         0.751798
 O         3.126500         1.532756         1.605248
 H         5.157652        -1.040000         1.518333
 H         4.192352        -2.603804         1.517560
 H         4.977184        -1.799845        -0.087928
 H        -0.201780         0.246052         1.400103
 H        -0.400350         1.004058        -0.214033
 H        -0.618718        -0.726299         0.085210
 H         1.526189        -0.544646        -2.061877
 H         1.525764         1.162368        -1.482255
 H         4.233048         0.560264        -1.003890
 H         2.648792         1.575954         2.487350
