19
Iteration:  2659charge 0 multiplicity 1
 C         4.376986        -1.802492         1.030898
 C         3.219448        -0.874399         0.486329
 O         1.992355        -1.398971         0.285746
 C         1.418859        -0.114570         0.063779
 C         0.018225        -0.005264         0.739341
 C         1.986742         0.227075        -1.306927
 C         3.385161         0.186792        -0.617825
 C         2.729960         0.592656         0.791771
 O         3.017606         1.751521         1.600084
 H         4.775771        -1.426792         1.968098
 H         3.731727        -2.636616         1.299400
 H         5.013754        -2.266432         0.291354
 H         0.201736         0.073966         1.915068
 H        -0.638991         0.844956         0.395899
 H        -0.629773        -0.960904         0.645138
 H         1.886284        -0.444795        -2.196188
 H         1.841336         1.282263        -1.589373
 H         4.413815         0.311550        -1.073902
 H         2.394934         1.524639         2.338125
