19
Iteration:  4726
 C         4.423633        -1.550659         0.958377
 C         3.290651        -0.750969         0.426923
 O         2.012412        -1.412143        -0.011292
 C         1.449011        -0.121773         0.082632
 C        -0.026720         0.103864         0.331861
 C         2.110875         0.443668        -1.264508
 C         3.485011         0.429972        -0.533261
 C         2.664145         0.472167         0.955231
 O         2.710439         1.071696         2.176347
 H         4.844127        -2.335212         0.244215
 H         5.185969        -0.829752         0.879542
 H         4.298044        -2.160446         1.888435
 H        -0.733251        -0.531130        -0.242257
 H        -0.325241        -0.117468         1.467753
 H        -0.225633         1.103188        -0.024309
 H         1.915452        -0.138736        -2.227157
 H         1.833948         1.542541        -1.537504
 H         4.509391         0.647279        -0.927010
 H         3.132421         0.392638         2.781711
