19
Iteration:  2143
 C         4.271313        -1.798676         1.170414
 C         3.197550        -0.812197         0.478331
 O         1.913103        -1.401337         0.318667
 C         1.403612        -0.014875         0.087365
 C        -0.021358        -0.084185         0.587836
 C         1.999597         0.325794        -1.286787
 C         3.390736         0.383327        -0.635270
 C         2.745805         0.634203         0.709291
 O         3.175584         1.365055         1.711123
 H         4.751787        -1.062888         1.795532
 H         3.632084        -2.616228         1.598900
 H         4.981709        -2.232895         0.434431
 H        -0.010411        -0.979669         1.166844
 H        -0.116593         0.776566         1.254337
 H        -0.840601        -0.073037        -0.091916
 H         1.889015        -0.520783        -2.000172
 H         1.803968         1.293535        -1.740759
 H         4.271079         0.531199        -1.256177
 H         3.144008         2.310556         1.455308
