19
Iteration:  2689
 C         4.396946        -1.781170         0.934469
 C         3.279900        -0.864293         0.525945
 O         2.011105        -1.421515         0.486103
 C         1.465544        -0.123859         0.221070
 C        -0.070343         0.053277         0.494000
 C         1.925886         0.268870        -1.226519
 C         3.290835         0.332916        -0.604845
 C         2.790794         0.478358         0.807167
 O         3.030592         1.630760         1.496186
 H         5.254101        -1.474201         1.593065
 H         3.731960        -2.392700         1.741817
 H         4.710399        -2.467720         0.106195
 H        -0.319817        -0.207092         1.515883
 H        -0.255534         0.988967         0.033259
 H        -0.355327        -0.758318        -0.190199
 H         1.737465        -0.479943        -2.045709
 H         1.443513         1.263298        -1.509814
 H         4.323274         0.670955        -0.847523
 H         2.881954         1.594668         2.495453
