19
Iteration:  4582charge 0 multiplicity 1
 C         4.559921        -1.508388         0.816438
 C         3.245408        -0.908879         0.463433
 O         1.965996        -1.480884         0.158214
 C         1.431920        -0.016639         0.114035
 C        -0.124552         0.141887         0.239411
 C         2.134720         0.304209        -1.203020
 C         3.373668         0.433772        -0.427148
 C         2.722071         0.447349         0.948868
 O         2.840625         1.210951         2.058628
 H         4.991051        -2.218605         0.097794
 H         5.355154        -0.718381         0.824209
 H         4.304621        -2.123364         1.719193
 H        -0.444391         0.150141        -0.834936
 H        -0.732784        -0.646725         0.776003
 H        -0.394800         1.151615         0.482677
 H         2.144974        -0.364189        -2.142284
 H         1.679289         1.261238        -1.579073
 H         4.398949         0.827899        -0.627527
 H         2.440376         0.718321         2.827748
