19
Iteration:  2126charge 0 multiplicity 1
 C         4.222644        -1.733156         1.098245
 C         3.314230        -0.772950         0.507710
 O         2.051847        -1.395958         0.283165
 C         1.431082        -0.082516         0.121420
 C        -0.019161         0.075275         0.575839
 C         1.890303         0.220372        -1.372004
 C         3.333571         0.305783        -0.725806
 C         2.820554         0.521668         0.757961
 O         3.090022         1.409100         1.858543
 H         5.105810        -1.357963         1.706191
 H         3.503318        -2.283538         1.768368
 H         4.535691        -2.565426         0.440555
 H        -0.273107        -0.906319         1.108071
 H        -0.245934         0.911877         1.259404
 H        -0.654892         0.246705        -0.352576
 H         1.684682        -0.569005        -2.096766
 H         1.465926         1.215712        -1.707674
 H         4.258245         0.809635        -1.005986
 H         3.211007         2.318824         1.481613
