19
Iteration:  3132charge 0 multiplicity 1
 C         4.329539        -1.632012         1.281687
 C         3.203393        -0.923664         0.474464
 O         1.838357        -1.403132         0.251855
 C         1.415709        -0.095670         0.035863
 C         0.043069         0.024371         0.619406
 C         2.064952         0.326138        -1.376092
 C         3.415795         0.172019        -0.610694
 C         2.658357         0.542025         0.717646
 O         3.137009         1.491250         1.716202
 H         5.398366        -1.283912         0.935876
 H         4.277286        -1.557666         2.404890
 H         4.236924        -2.738942         0.936776
 H         0.094240         0.138676         1.697561
 H        -0.508808         0.794970         0.106963
 H        -0.573892        -0.878367         0.458721
 H         1.827557        -0.423488        -2.175500
 H         1.874515         1.424174        -1.575259
 H         4.302289         0.255604        -1.158555
 H         2.665690         2.344390         1.594191
