19
Iteration:   860
 C         4.315083        -1.912542         0.792237
 C         3.474220        -0.763018         0.477672
 O         2.239212        -1.387083        -0.008589
 C         1.441736        -0.107227         0.079143
 C         0.031504        -0.180751         0.231083
 C         2.090342         0.635176        -1.175977
 C         3.434948         0.634867        -0.428432
 C         2.691565         0.536756         0.966601
 O         2.463121         1.209353         2.194607
 H         3.811687        -2.739883         1.154715
 H         4.875065        -2.270590        -0.099192
 H         4.959859        -1.675570         1.597786
 H        -0.242614        -0.520341         1.256530
 H        -0.443928         0.775100        -0.088482
 H        -0.363773        -0.901159        -0.533243
 H         1.675464         0.174665        -1.996811
 H         1.787353         1.707571        -1.210051
 H         4.398770         1.142667        -0.513069
 H         3.316462         1.478306         2.580364
