19
Iteration:  4251charge 0 multiplicity 1
 C         4.533565        -1.678546         0.822580
 C         3.347400        -0.752513         0.580763
 O         1.902611        -1.482939         0.290265
 C         1.413214        -0.114970         0.120986
 C         0.029629         0.121689         0.136099
 C         2.064515         0.363695        -1.211797
 C         3.337378         0.416708        -0.533001
 C         2.691107         0.522527         0.889890
 O         2.887194         1.224035         2.088797
 H         4.303762        -2.681912         0.288523
 H         5.440194        -1.305227         0.269731
 H         4.656087        -1.856578         1.892470
 H        -0.533495        -0.790801        -0.007286
 H        -0.203470         0.308798         1.145644
 H        -0.399107         0.795251        -0.679369
 H         1.768190        -0.485229        -1.871221
 H         1.725803         1.318982        -1.637018
 H         4.278135         0.990839        -0.874548
 H         2.095628         1.744167         2.187541
