19
Iteration:  4947
 C         4.527678        -1.551814         0.912071
 C         3.358464        -0.827678         0.369125
 O         1.932125        -1.477629         0.170029
 C         1.395854        -0.055944         0.039849
 C        -0.113280         0.158554         0.197802
 C         2.047499         0.482676        -1.265653
 C         3.438005         0.483028        -0.472545
 C         2.747956         0.407137         0.913810
 O         2.795987         1.030156         2.186498
 H         5.063520        -2.073784         0.118107
 H         5.168856        -0.751394         1.335449
 H         4.276595        -2.193562         1.726948
 H        -0.560607        -0.792641        -0.165761
 H        -0.483054         0.217992         1.190363
 H        -0.509200         1.147443        -0.287506
 H         1.671034        -0.083194        -2.134106
 H         1.905572         1.605903        -1.347305
 H         4.402801         0.926423        -0.771650
 H         3.349825         0.438147         2.731068
