19
Iteration:  4174
 C         4.312634        -1.684629         1.175782
 C         3.279698        -0.932590         0.313849
 O         2.082711        -1.511860        -0.017352
 C         1.370086        -0.042772         0.031113
 C        -0.033475        -0.057496         0.581725
 C         2.107017         0.568797        -1.178522
 C         3.428247         0.382199        -0.474844
 C         2.749258         0.451613         0.824367
 O         2.822996         1.358721         1.895492
 H         5.074730        -2.099700         0.408776
 H         4.754383        -1.311796         2.063234
 H         3.795197        -2.582698         1.547147
 H        -0.365640        -0.989811         0.977654
 H        -0.198404         0.667691         1.381670
 H        -0.659126         0.316539        -0.344609
 H         2.046933         0.023750        -2.123660
 H         1.862517         1.602585        -1.350685
 H         4.287465         0.800139        -0.978807
 H         3.116934         2.238119         1.508954
