19
Iteration:   192
 C         4.344763        -1.832321         0.860223
 C         3.239558        -0.878775         0.374296
 O         2.047924        -1.392859        -0.246496
 C         1.498197        -0.036465        -0.110679
 C        -0.017269        -0.064361         0.161254
 C         2.226949         0.946273        -1.042948
 C         3.476951         0.599574        -0.137096
 C         2.591376         0.352381         0.995851
 O         2.726765         0.967417         2.219018
 H         4.081342        -2.598463         1.604618
 H         4.736522        -2.353433        -0.026752
 H         5.090482        -1.148022         1.406489
 H        -0.392718         0.972431        -0.137807
 H        -0.568930        -0.851392        -0.438056
 H        -0.070072        -0.111488         1.299048
 H         2.192716         0.971657        -2.189452
 H         1.940436         1.847300        -0.728679
 H         4.416350         1.126511        -0.123138
 H         2.616226         0.351552         2.981576
