19
Iteration:  2487charge 0 multiplicity 1
 C         4.224474        -1.906853         1.073903
 C         3.348435        -0.844434         0.549377
 O         2.039747        -1.439576         0.337176
 C         1.454257        -0.160488         0.238867
 C         0.043208         0.021416         0.663083
 C         1.900872         0.351655        -1.269816
 C         3.346726         0.298361        -0.591210
 C         2.767735         0.524979         0.728552
 O         3.011912         1.682078         1.408122
 H         3.534740        -2.714770         1.537628
 H         4.789091        -2.297365         0.228372
 H         4.879775        -1.457776         1.919162
 H        -0.162423        -0.048237         1.703837
 H        -0.345921         1.045309         0.437814
 H        -0.540132        -0.694519         0.087452
 H         1.527499        -0.098076        -2.211375
 H         1.813374         1.425809        -1.270932
 H         4.350922         0.501065        -0.988047
 H         3.073711         1.495470         2.332991
