19
Iteration:  1522charge 0 multiplicity 1
 C         4.444637        -1.737811         0.977315
 C         3.289658        -0.905333         0.509075
 O         2.100049        -1.524525         0.019753
 C         1.447890        -0.107159        -0.042798
 C         0.067544        -0.001181         0.473142
 C         2.124967         0.643902        -1.199707
 C         3.425839         0.455129        -0.417442
 C         2.700085         0.482188         0.807912
 O         2.561954         1.241233         1.976460
 H         4.785856        -1.452603         1.975387
 H         4.005268        -2.779416         0.996230
 H         5.248255        -1.678517         0.208740
 H         0.080743         0.108247         1.557081
 H        -0.463637         0.881043         0.158686
 H        -0.606059        -0.857795         0.348886
 H         2.005822         0.355129        -2.279487
 H         1.647334         1.610987        -0.923052
 H         4.361972         0.758367        -0.785622
 H         3.096087         2.062133         1.936354
