19
Iteration:  2346charge 0 multiplicity 1
 C         4.314087        -1.638110         1.045835
 C         3.180340        -0.835472         0.534347
 O         1.873944        -1.411889         0.407705
 C         1.407673         0.009855         0.034757
 C        -0.056255         0.036149         0.574968
 C         2.010055         0.234637        -1.352886
 C         3.347494         0.188521        -0.660421
 C         2.718213         0.527761         0.799947
 O         3.214375         1.532175         1.692417
 H         4.098179        -2.025792         2.053958
 H         4.242480        -2.565463         0.531288
 H         5.376962        -1.273078         0.992401
 H         0.019257        -0.773459         1.229418
 H        -0.439353         0.883805         1.108242
 H        -0.601536        -0.387775        -0.246230
 H         1.989557        -0.463914        -2.215243
 H         1.708078         1.242253        -1.663141
 H         4.258397         0.663614        -1.034499
 H         3.642129         0.952249         2.348018
