19
Iteration:  2131charge 0 multiplicity 1
 C         4.187260        -1.738220         1.145225
 C         3.291096        -0.809551         0.483089
 O         2.054343        -1.386330         0.298140
 C         1.391672        -0.017609         0.065060
 C        -0.010356         0.026457         0.589788
 C         1.938777         0.226492        -1.329883
 C         3.301748         0.349431        -0.699041
 C         2.824300         0.533664         0.720718
 O         3.117271         1.399773         1.822020
 H         5.007885        -1.477844         1.759354
 H         3.716886        -2.462902         1.808485
 H         4.656458        -2.315920         0.314446
 H        -0.224800        -0.881675         1.098284
 H        -0.273757         0.818525         1.309772
 H        -0.678173         0.085689        -0.260404
 H         1.684725        -0.536937        -2.088399
 H         1.535818         1.162997        -1.646918
 H         4.301308         0.686811        -1.012565
 H         3.211163         2.305764         1.523088
