19
Iteration:  3980charge 0 multiplicity 1
 C         4.238002        -1.754959         1.154251
 C         3.261500        -0.883402         0.419927
 O         2.079186        -1.369827        -0.093396
 C         1.476541        -0.017124        -0.007294
 C         0.055838        -0.147179         0.649907
 C         2.080573         0.615086        -1.224907
 C         3.495758         0.492438        -0.487137
 C         2.708258         0.436433         0.781728
 O         2.758090         1.198852         1.895895
 H         3.513001        -2.493547         1.489349
 H         5.121731        -2.215015         0.655266
 H         4.521836        -1.192446         2.039636
 H        -0.071356         0.398541         1.522644
 H        -0.717138         0.206537         0.016605
 H        -0.215882        -1.172487         0.892977
 H         2.056320         0.210752        -2.280550
 H         1.726609         1.646515        -1.211144
 H         4.515334         0.814814        -0.595001
 H         3.123366         2.074948         1.605590
