19
Iteration:  1723
 C         4.474410        -1.686273         0.980906
 C         3.326608        -0.869635         0.417733
 O         2.073612        -1.583509         0.265007
 C         1.419422        -0.213310         0.085045
 C        -0.023169         0.146871         0.452709
 C         2.066757         0.428082        -1.237248
 C         3.393886         0.534654        -0.476892
 C         2.678145         0.432702         0.811310
 O         2.781829         1.301005         1.842423
 H         4.975178        -2.367116         0.216261
 H         5.250868        -0.962228         1.300798
 H         4.020609        -2.190173         1.872728
 H        -0.673255         0.168077        -0.443446
 H        -0.515238        -0.536435         1.182598
 H        -0.155225         1.073509         1.054621
 H         1.860063        -0.154268        -2.182172
 H         1.779089         1.473117        -1.557889
 H         4.257068         1.073969        -0.818498
 H         2.252893         2.091589         1.683811
