19
Iteration:   799charge 0 multiplicity 1
 C         4.538882        -1.506054         0.961625
 C         3.217344        -0.896129         0.444778
 O         2.081641        -1.468860        -0.238439
 C         1.446996        -0.089801        -0.069472
 C        -0.074603        -0.026406         0.312324
 C         2.214114         0.704244        -1.149204
 C         3.435012         0.510918        -0.292044
 C         2.567331         0.348628         0.961232
 O         2.615380         0.996684         2.198216
 H         4.392511        -1.943769         2.016831
 H         4.933371        -2.196572         0.159617
 H         5.298091        -0.630277         1.003397
 H        -0.234816         0.624208         1.206882
 H        -0.718750         0.347820        -0.520220
 H        -0.346262        -1.020982         0.643518
 H         2.125826         0.347461        -2.286368
 H         2.094221         1.781022        -1.006131
 H         4.439644         0.707408        -0.496786
 H         3.475431         1.419599         2.315104
