19
Iteration:  3191
 C         4.393617        -1.564737         1.187748
 C         3.245357        -0.933456         0.465753
 O         1.948099        -1.501516         0.419661
 C         1.435889        -0.071639         0.017820
 C         0.099930         0.348792         0.554800
 C         1.967626         0.105606        -1.421397
 C         3.315103         0.223644        -0.679800
 C         2.752940         0.480304         0.693189
 O         2.899420         1.412927         1.804684
 H         4.988427        -0.956334         1.902411
 H         3.873288        -2.406885         1.767085
 H         5.127586        -2.125090         0.577918
 H        -0.191834        -0.379418         1.362013
 H         0.240209         1.342600         1.065504
 H        -0.674947         0.347368        -0.206677
 H         1.830346        -0.738827        -2.135256
 H         1.557871         1.050567        -1.877652
 H         4.263620         0.677621        -1.153936
 H         3.659865         1.979803         1.718892
