19
Iteration:  1016
 C         4.401556        -1.614599         1.115651
 C         3.272936        -0.883433         0.369218
 O         2.040368        -1.386951        -0.149942
 C         1.400034        -0.070744        -0.033256
 C        -0.042036        -0.251721         0.251486
 C         2.161939         0.778221        -1.204519
 C         3.424594         0.523951        -0.322656
 C         2.571086         0.404502         0.951207
 O         2.854139         1.034437         2.111329
 H         4.023645        -1.647893         2.098489
 H         4.699859        -2.548126         0.625746
 H         5.168438        -0.810707         1.073097
 H        -0.132395        -1.231312         0.828241
 H        -0.473771         0.453400         1.071091
 H        -0.876044        -0.082195        -0.478192
 H         2.196276         0.443273        -2.237037
 H         1.992000         1.861009        -1.087019
 H         4.430267         1.033249        -0.327941
 H         3.142809         1.963097         1.945589
