19
Iteration:  1357
 C         4.402479        -1.789903         1.029307
 C         3.398776        -0.768168         0.405199
 O         2.099264        -1.408579        -0.016592
 C         1.506281        -0.088497         0.012579
 C         0.012237        -0.071328         0.276818
 C         2.045463         0.568853        -1.136781
 C         3.392677         0.569414        -0.467115
 C         2.702588         0.467023         0.907098
 O         2.670893         1.123788         2.105097
 H         4.190529        -2.752044         0.492676
 H         5.363742        -1.359283         1.052210
 H         4.010042        -1.893436         2.029965
 H        -0.226005        -1.096459         0.525350
 H        -0.280801         0.436541         1.189780
 H        -0.640498         0.111832        -0.539858
 H         1.806564         0.065902        -2.129174
 H         1.708964         1.587111        -1.051637
 H         4.318482         1.169632        -0.756721
 H         2.671902         2.074497         1.873593
