19
Iteration:  1734charge 0 multiplicity 1
 C         4.464556        -1.619237         0.963461
 C         3.338350        -0.839162         0.433642
 O         2.083534        -1.532103         0.273091
 C         1.451810        -0.162970         0.105263
 C        -0.034299         0.137221         0.402453
 C         2.035071         0.382632        -1.293158
 C         3.305614         0.462624        -0.529088
 C         2.683083         0.401080         0.843565
 O         2.805362         1.271802         1.914575
 H         5.053525        -2.221246         0.189460
 H         5.131416        -1.042675         1.608432
 H         4.047908        -2.447518         1.617491
 H        -0.640353         0.265271        -0.515997
 H        -0.465401        -0.569052         1.123948
 H         0.147280         1.166613         0.747340
 H         2.029331        -0.314807        -2.179171
 H         1.419006         1.311651        -1.335329
 H         4.141691         1.114960        -0.498108
 H         2.751377         2.184312         1.557212
