19
Iteration:   610
 C         4.377356        -1.591929         0.761512
 C         3.236569        -0.804007         0.455040
 O         2.026489        -1.424636        -0.000586
 C         1.475558         0.032600        -0.095650
 C        -0.012878         0.003726         0.256783
 C         2.314117         0.732127        -1.274921
 C         3.514912         0.633022        -0.316085
 C         2.610948         0.398917         1.005062
 O         2.573411         0.723387         2.320276
 H         4.335106        -2.259006         1.633369
 H         4.713313        -2.189074        -0.169954
 H         5.257336        -1.033892         1.044375
 H        -0.598633        -0.759784        -0.228488
 H         0.072687        -0.249707         1.317905
 H        -0.563906         0.873489         0.032721
 H         2.344689         0.077272        -2.180559
 H         2.071992         1.738643        -1.439491
 H         4.530175         0.888567        -0.490732
 H         2.794459         1.707039         2.301970
