19
Iteration:  2071charge 0 multiplicity 1
 C         4.655137        -1.616774         0.866187
 C         3.157294        -0.967340         0.567236
 O         1.826316        -1.469291         0.438606
 C         1.396931        -0.094362         0.043451
 C         0.050958         0.241335         0.546629
 C         2.128807         0.349180        -1.358045
 C         3.325461         0.167088        -0.530014
 C         2.668589         0.460333         0.757622
 O         2.881152         1.385304         1.834861
 H         5.283056        -1.322164        -0.010018
 H         5.038403        -1.399637         1.856700
 H         4.334709        -2.636883         0.674600
 H        -0.306570        -0.629303         1.226690
 H         0.200625         1.222602         1.027005
 H        -0.656448         0.399921        -0.344202
 H         1.953729        -0.356466        -2.163377
 H         1.999354         1.435410        -1.622268
 H         4.344821         0.308893        -0.846438
 H         2.647770         2.280500         1.548740
