19
Iteration:  2076charge 0 multiplicity 1
 C         4.578719        -1.608739         0.896991
 C         3.209067        -0.944880         0.611469
 O         1.836416        -1.491427         0.440339
 C         1.409740        -0.068407         0.068692
 C         0.045132         0.214363         0.544564
 C         2.091310         0.393169        -1.378716
 C         3.363093         0.200557        -0.579659
 C         2.655512         0.415064         0.775656
 O         2.890395         1.355978         1.805897
 H         5.101250        -1.206371         0.059254
 H         5.127322        -1.537703         1.875259
 H         4.578795        -2.708649         0.634487
 H        -0.393743        -0.479890         1.183636
 H         0.166661         1.208299         1.000452
 H        -0.513125         0.526744        -0.310535
 H         1.818662        -0.436601        -2.071492
 H         1.949691         1.389534        -1.747134
 H         4.415512         0.391006        -0.847228
 H         2.646037         2.238566         1.455668
