19
Iteration:  4508charge 0 multiplicity 1
 C         4.218276        -1.759077         1.138772
 C         3.381904        -0.828419         0.363681
 O         2.074719        -1.399025        -0.096526
 C         1.443659        -0.069672         0.038550
 C         0.021642        -0.101285         0.581167
 C         2.118250         0.514040        -1.259913
 C         3.419472         0.469733        -0.458405
 C         2.698133         0.499830         0.831065
 O         2.756332         1.334418         1.914701
 H         4.120378        -2.750588         0.564350
 H         5.259875        -1.557733         1.072197
 H         3.835829        -1.623111         2.230539
 H        -0.470476        -1.000860         0.199354
 H         0.216861        -0.605905         1.596792
 H        -0.600548         0.770182         0.579389
 H         2.011828        -0.018197        -2.193980
 H         1.908719         1.599260        -1.521842
 H         4.352379         1.049656        -0.658619
 H         3.218113         0.919847         2.632742
