19
Iteration:   882charge 0 multiplicity 1
 C         4.449018        -1.761310         0.738955
 C         3.359831        -0.826866         0.482968
 O         2.060312        -1.440203         0.026388
 C         1.412881        -0.138926         0.017337
 C         0.030194        -0.132920         0.260434
 C         2.220922         0.674097        -1.134740
 C         3.435573         0.596270        -0.286752
 C         2.663146         0.397363         0.985500
 O         2.493772         1.252415         2.092408
 H         4.056244        -2.678070         1.068694
 H         4.999403        -2.006005        -0.193937
 H         5.139291        -1.477241         1.496780
 H        -0.096892        -0.903362         1.044991
 H        -0.393856         0.852340         0.491262
 H        -0.419284        -0.424971        -0.708312
 H         2.289058         0.085614        -1.997444
 H         1.702682         1.614477        -1.400338
 H         4.383048         1.097025        -0.392102
 H         3.369608         1.594269         2.359665
