19
Iteration:  3714charge 0 multiplicity 1
 C         4.462755        -1.651429         0.757681
 C         3.320579        -0.837684         0.418999
 O         1.940506        -1.504369         0.194488
 C         1.341511        -0.056303         0.045527
 C        -0.115960         0.110987         0.186025
 C         2.141241         0.465116        -1.243180
 C         3.398321         0.433769        -0.343700
 C         2.718681         0.451077         0.954005
 O         2.879022         1.128134         2.184761
 H         4.834791        -1.984867        -0.240227
 H         5.295682        -1.047820         1.178780
 H         4.250039        -2.535060         1.430042
 H        -0.150259         1.203416         0.199322
 H        -0.683987        -0.286930        -0.658265
 H        -0.424867        -0.156281         1.156472
 H         2.201319        -0.180148        -2.111609
 H         1.759111         1.485856        -1.489635
 H         4.336824         0.863166        -0.538167
 H         3.024852         2.099199         2.144226
