19
Iteration:  2566
 C         4.502852        -1.530659         0.977398
 C         3.226334        -0.881570         0.503069
 O         1.850781        -1.424583         0.551880
 C         1.354806        -0.110508         0.222748
 C        -0.085375         0.197729         0.480827
 C         1.976078         0.151840        -1.339359
 C         3.265949         0.248513        -0.706376
 C         2.777354         0.486118         0.706031
 O         3.152405         1.430386         1.708422
 H         4.282725        -1.915801         2.002844
 H         4.895733        -2.325530         0.258633
 H         5.284108        -0.697160         0.960183
 H        -0.480330        -0.249117         1.332228
 H        -0.014589         1.286802         0.499227
 H        -0.572765        -0.086289        -0.410268
 H         1.947064        -0.770953        -1.950151
 H         1.560432         0.986663        -1.926479
 H         4.269173         0.478551        -1.122123
 H         3.325352         0.908255         2.492983
