19
Iteration:  1145charge 0 multiplicity 1
 C         4.448280        -1.671438         0.951219
 C         3.308322        -0.830615         0.412636
 O         2.122485        -1.456515        -0.123875
 C         1.527335        -0.124008         0.077833
 C        -0.019914         0.027143         0.250573
 C         2.068257         0.682531        -1.107931
 C         3.444452         0.517730        -0.373271
 C         2.688089         0.348428         0.946158
 O         2.583893         1.056635         2.137730
 H         4.058328        -2.504280         1.576302
 H         5.021905        -2.339212         0.111484
 H         5.307384        -1.124916         1.515217
 H        -0.310907         0.355459         1.274296
 H        -0.281748         0.731347        -0.548740
 H        -0.585565        -0.921987         0.208848
 H         1.737523         0.478159        -2.148223
 H         1.795189         1.846770        -0.901666
 H         4.445388         0.926414        -0.644568
 H         2.696333         1.980108         1.877762
