19
Iteration:  4003
 C         4.244015        -1.766567         1.096535
 C         3.296627        -0.811320         0.359760
 O         1.984506        -1.494943         0.050382
 C         1.445521        -0.063222         0.061562
 C         0.007660        -0.173125         0.489085
 C         2.179900         0.621243        -1.418885
 C         3.415259         0.525748        -0.501197
 C         2.707336         0.520114         0.868630
 O         2.870894         1.236410         2.061495
 H         3.618424        -2.651428         1.134861
 H         5.276866        -1.892480         0.541851
 H         4.432196        -1.352217         2.102460
 H        -0.061145         0.358321         1.417647
 H        -0.838908         0.196148         0.032750
 H        -0.258522        -1.111392         0.828864
 H         1.952485         0.023392        -2.379624
 H         1.999552         1.694286        -1.527778
 H         4.328541         0.931701        -0.749318
 H         3.076787         2.142543         1.766841
