19
Iteration:   789
 C         4.542236        -1.499598         0.921554
 C         3.300656        -0.883887         0.398040
 O         2.088267        -1.449062        -0.194773
 C         1.454568        -0.108673        -0.016088
 C        -0.059699         0.041906         0.268756
 C         2.120054         0.737927        -1.148515
 C         3.460044         0.442590        -0.301971
 C         2.594612         0.341099         0.983343
 O         2.577099         0.940720         2.224148
 H         4.497625        -1.905853         1.985923
 H         5.055939        -2.314992         0.403800
 H         5.209682        -0.600949         1.038359
 H        -0.229040         0.834044         0.991290
 H        -0.649476         0.215529        -0.619765
 H        -0.497852        -0.839478         0.638119
 H         2.171132         0.196101        -2.156879
 H         1.809180         1.758662        -1.312493
 H         4.455962         0.796830        -0.421909
 H         3.335506         1.560704         2.148684
