19
Iteration:   126
 C         4.309556        -1.680351         0.757820
 C         3.187805        -0.802638         0.442925
 O         1.936293        -1.359947        -0.035936
 C         1.433079         0.042073        -0.107763
 C        -0.007915        -0.088520        -0.018284
 C         2.309483         0.842351        -1.166434
 C         3.447700         0.628084        -0.140096
 C         2.638980         0.379491         1.043526
 O         2.895729         0.820238         2.343330
 H         4.045105        -2.580255         1.375774
 H         4.627586        -2.110459        -0.212014
 H         5.165211        -1.183390         1.340623
 H        -0.633966         0.819334        -0.427855
 H        -0.460713        -0.952082        -0.576643
 H        -0.411389        -0.099177         1.049045
 H         2.232431         0.449107        -2.283837
 H         1.913581         1.807598        -1.136675
 H         4.501815         1.057192        -0.195577
 H         2.651121         0.022049         2.845688
