19
Iteration:  4082charge 0 multiplicity 1
 C         4.521304        -1.572776         0.832143
 C         3.182418        -0.819875         0.600626
 O         1.915351        -1.481074         0.242745
 C         1.423420        -0.129090         0.088218
 C        -0.034716         0.125204         0.250156
 C         2.062018         0.387692        -1.207223
 C         3.425793         0.383754        -0.438348
 C         2.703722         0.499853         0.850489
 O         2.913123         1.141264         2.018080
 H         4.697870        -1.962262        -0.227438
 H         5.365371        -0.795096         1.084680
 H         4.413012        -2.342934         1.658138
 H        -0.665823         0.286456         1.167505
 H        -0.351147         0.935385        -0.426566
 H        -0.422916        -0.720797        -0.267343
 H         1.898555        -0.291243        -2.091099
 H         1.651210         1.422304        -1.512195
 H         4.485498         0.763274        -0.663220
 H         3.029310         2.073088         1.836653
