19
Iteration:  3130
 C         4.358459        -1.641370         1.275892
 C         3.190470        -0.924536         0.483183
 O         1.836927        -1.404329         0.257956
 C         1.397727        -0.083932         0.038806
 C         0.029483         0.021910         0.618401
 C         2.081745         0.329500        -1.368787
 C         3.410923         0.182582        -0.594477
 C         2.664950         0.554508         0.695727
 O         3.144968         1.491042         1.704064
 H         5.372316        -1.339700         0.865554
 H         4.266255        -1.594500         2.367855
 H         4.224344        -2.714717         0.952927
 H         0.015772         0.123976         1.673951
 H        -0.583946         0.742517         0.038391
 H        -0.604161        -0.902989         0.476667
 H         1.896367        -0.452826        -2.127312
 H         1.905764         1.391045        -1.521015
 H         4.311880         0.246163        -1.112386
 H         2.650887         2.295449         1.629826
