19
Iteration:  3280
 C         4.176291        -1.886118         1.071724
 C         3.296903        -0.820929         0.481066
 O         2.050009        -1.373101         0.387423
 C         1.421187        -0.063673         0.117473
 C        -0.054809        -0.075854         0.436662
 C         2.019778         0.227943        -1.291497
 C         3.434089         0.270464        -0.622636
 C         2.707481         0.651412         0.817350
 O         3.093268         1.620379         1.760825
 H         5.140151        -1.592413         1.572953
 H         3.469200        -2.210629         1.891694
 H         4.259963        -2.738762         0.359758
 H        -0.266549        -0.893680         1.102021
 H        -0.366755         0.896212         0.936620
 H        -0.639437        -0.288960        -0.511222
 H         1.796753        -0.583008        -2.041870
 H         1.659130         1.162319        -1.746676
 H         4.364587         0.635741        -0.962194
 H         3.059625         2.472532         1.338927
