19
Iteration:  1831
 C         4.358393        -1.767152         1.057693
 C         3.361501        -0.855717         0.350478
 O         2.096346        -1.447373         0.081095
 C         1.467005        -0.136819         0.186089
 C        -0.049671        -0.013962         0.485538
 C         1.930197         0.434101        -1.187962
 C         3.365508         0.367254        -0.499621
 C         2.706606         0.500326         0.845382
 O         2.827148         1.458063         1.853333
 H         5.219184        -1.427699         1.710789
 H         3.582681        -2.363396         1.626950
 H         4.892713        -2.483701         0.342380
 H        -0.534351        -1.023574         0.668395
 H        -0.072311         0.521982         1.469182
 H        -0.465272         0.507621        -0.428684
 H         2.081979        -0.223347        -2.054519
 H         1.792122         1.526305        -1.437249
 H         4.232033         0.901894        -0.855003
 H         3.584807         2.000135         1.581429
