19
Iteration:  3698charge 0 multiplicity 1
 C         4.424511        -1.740085         0.777707
 C         3.190710        -0.826134         0.522441
 O         2.020312        -1.391222         0.075788
 C         1.415543        -0.099310         0.082822
 C        -0.104888         0.049113         0.196539
 C         2.125036         0.464147        -1.145060
 C         3.390912         0.494625        -0.362162
 C         2.607047         0.458633         0.980035
 O         2.987086         1.174112         2.096586
 H         5.159721        -1.986102        -0.012379
 H         5.047102        -1.275732         1.570629
 H         4.085584        -2.691065         1.151110
 H        -0.583909         1.024710         0.484112
 H        -0.552825        -0.200404        -0.786411
 H        -0.585441        -0.683668         0.944878
 H         2.006767        -0.283349        -1.971910
 H         1.857905         1.465137        -1.496157
 H         4.428054         0.896181        -0.569307
 H         3.199190         2.033866         1.739862
