19
Iteration:   834
 C         4.345454        -1.779611         0.888420
 C         3.373910        -0.803873         0.376787
 O         2.117687        -1.364959        -0.064449
 C         1.449681        -0.055209         0.044270
 C         0.029587        -0.241069         0.295484
 C         2.196660         0.712843        -1.181545
 C         3.413012         0.667407        -0.344606
 C         2.672419         0.452894         0.957583
 O         2.536626         1.108426         2.138747
 H         3.825216        -2.530382         1.550796
 H         4.831470        -2.386655         0.165262
 H         5.113925        -1.319795         1.554035
 H        -0.209514        -0.009309         1.290529
 H        -0.511195         0.361198        -0.369720
 H        -0.240344        -1.238939         0.062548
 H         1.980962         0.289732        -2.167126
 H         1.828166         1.727955        -1.169743
 H         4.479822         0.914414        -0.596598
 H         3.422299         1.301208         2.481043
