19
Iteration:     5
 C         4.346353        -1.776104         0.790157
 C         3.305339        -0.825845         0.432466
 O         2.045575        -1.344927        -0.163274
 C         1.489229        -0.021969        -0.027680
 C        -0.005153        -0.029359         0.164525
 C         2.260169         0.777985        -1.107824
 C         3.492126         0.560165        -0.210665
 C         2.629562         0.382125         1.008537
 O         2.662256         1.017035         2.229424
 H         3.956199        -2.526978         1.549327
 H         4.713894        -2.375112        -0.081552
 H         5.109396        -1.234366         1.336777
 H        -0.412829        -0.592464         1.087369
 H        -0.467392         0.972354         0.274337
 H        -0.513209        -0.584207        -0.649270
 H         2.156759         0.209962        -2.179058
 H         1.797769         1.750036        -1.237525
 H         4.539244         0.831972        -0.296649
 H         2.351724         0.437090         2.970222
