19
Iteration:  1106charge 0 multiplicity 1
 C         4.381366        -1.627776         0.597188
 C         3.230986        -0.764142         0.600983
 O         1.991023        -1.418170         0.070531
 C         1.467607        -0.070094        -0.007429
 C         0.006859        -0.082111         0.315426
 C         2.418572         0.507887        -1.315498
 C         3.456684         0.590371        -0.300974
 C         2.613284         0.488046         0.985345
 O         2.597523         1.035442         2.216278
 H         4.066564        -2.639480         0.854059
 H         4.876865        -1.584585        -0.252641
 H         5.030636        -1.429071         1.395408
 H        -0.110610         0.188244         1.356558
 H        -0.514564         0.767730        -0.175033
 H        -0.392210        -1.059587         0.026662
 H         2.547287        -0.370919        -2.010853
 H         2.117800         1.370769        -1.764873
 H         4.516589         0.819621        -0.292899
 H         2.298718         1.991716         2.214043
