19
Iteration:  3837
 C         4.302401        -1.768869         1.015187
 C         3.227039        -0.865745         0.359436
 O         2.022086        -1.428263        -0.043673
 C         1.368005        -0.064201        -0.004267
 C        -0.123314        -0.201591         0.252825
 C         2.125602         0.699617        -1.129567
 C         3.428567         0.466001        -0.401989
 C         2.766517         0.476694         0.936599
 O         2.957604         1.236355         2.148219
 H         3.927400        -2.196843         2.020505
 H         4.624088        -2.516101         0.286838
 H         5.144584        -1.050366         1.137888
 H        -0.656753         0.417863        -0.391076
 H        -0.288685        -1.245200         0.050569
 H        -0.323574         0.117153         1.303356
 H         1.933239         0.431385        -2.211026
 H         1.810596         1.728632        -0.957989
 H         4.515821         0.833728        -0.527772
 H         3.267764         2.083343         1.706914
