19
Iteration:   532charge 0 multiplicity 1
 C         4.342143        -1.800263         0.811709
 C         3.233189        -0.850856         0.393836
 O         2.020977        -1.342846        -0.194587
 C         1.468519         0.008338        -0.036264
 C         0.003675        -0.174479         0.177222
 C         2.241141         0.875532        -1.065605
 C         3.470883         0.628256        -0.176709
 C         2.649335         0.367047         0.996104
 O         2.679005         1.007342         2.227684
 H         3.892043        -2.628058         1.359894
 H         4.704325        -2.335307        -0.116003
 H         5.068784        -1.227880         1.338769
 H         0.014811        -0.602110         1.162332
 H        -0.491310         0.779831         0.138746
 H        -0.430824        -0.797876        -0.604150
 H         2.333647         0.376763        -2.024676
 H         1.751893         1.790526        -1.180868
 H         4.463042         1.183988        -0.179637
 H         3.345499         0.629175         2.799167
