19
Iteration:  1654
 C         4.292844        -1.739301         1.022467
 C         3.314166        -0.787813         0.467930
 O         2.079628        -1.456987         0.173702
 C         1.423669        -0.157791         0.044739
 C        -0.037336        -0.093994         0.506069
 C         2.091145         0.446063        -1.287334
 C         3.392621         0.556531        -0.504145
 C         2.699264         0.474987         0.811770
 O         2.883466         1.335788         1.887495
 H         3.877717        -2.734901         1.130671
 H         5.158241        -1.905235         0.212641
 H         4.738986        -1.313138         1.953938
 H        -0.501247        -0.871193        -0.118444
 H        -0.081128        -0.054545         1.626962
 H        -0.295452         0.905936         0.068740
 H         2.189522        -0.150229        -2.237802
 H         1.784918         1.480803        -1.650996
 H         4.336920         1.150276        -0.603309
 H         2.037570         1.488484         2.327434
