19
Iteration:   225charge 0 multiplicity 1
 C         4.380250        -1.790634         0.749687
 C         3.275002        -0.890552         0.317078
 O         1.996619        -1.308372        -0.293875
 C         1.468743         0.063081         0.020332
 C         0.100764        -0.036163         0.307137
 C         2.336438         0.772590        -1.095684
 C         3.552002         0.533512        -0.144195
 C         2.620166         0.368946         1.025638
 O         2.505048         0.945042         2.256856
 H         4.272073        -2.498602         1.570034
 H         4.981491        -2.249563        -0.063301
 H         5.249710        -1.063401         1.094232
 H        -0.348833         0.943601         0.667229
 H        -0.647041        -0.394514        -0.483477
 H        -0.276008        -0.795313         1.108336
 H         2.295251         0.381568        -2.200242
 H         2.273107         1.774062        -1.105516
 H         4.560721         0.780268        -0.258609
 H         1.572842         1.123424         2.528147
