19
Iteration:  4920charge 0 multiplicity 1
 C         4.525467        -1.445985         0.833957
 C         3.228014        -0.876437         0.458265
 O         1.920809        -1.466258         0.124705
 C         1.420562        -0.098264         0.117960
 C        -0.041305         0.166672         0.215938
 C         2.130990         0.464840        -1.266778
 C         3.379412         0.364999        -0.427379
 C         2.713595         0.491771         0.900502
 O         2.841042         1.054569         2.168647
 H         5.026024        -1.461977        -0.190833
 H         5.104427        -0.889869         1.588687
 H         4.605757        -2.579178         1.027128
 H        -0.504081        -0.760855        -0.167674
 H        -0.467200         0.499971         1.232560
 H        -0.279943         0.987350        -0.394941
 H         1.954787        -0.197746        -2.107834
 H         1.964573         1.517391        -1.348696
 H         4.389761         0.784608        -0.587978
 H         2.497155         0.311588         2.703507
