19
Iteration:  2672charge 0 multiplicity 1
 C         4.288729        -1.869859         1.006999
 C         3.343472        -0.866559         0.488786
 O         1.971472        -1.471204         0.343981
 C         1.390341        -0.110942         0.168246
 C         0.003146        -0.015798         0.601244
 C         1.991700         0.246604        -1.194758
 C         3.360785         0.254345        -0.584071
 C         2.783107         0.650802         0.702808
 O         3.013138         1.709594         1.562685
 H         4.991294        -1.303996         1.619630
 H         3.929402        -2.674486         1.518345
 H         5.045994        -2.127357         0.259042
 H         0.071464         0.108181         1.769772
 H        -0.471510         0.960233         0.250196
 H        -0.600897        -0.925786         0.317019
 H         1.674290        -0.506861        -1.917223
 H         1.673430         1.224112        -1.494226
 H         4.195896         0.733192        -1.112380
 H         2.575043         1.687769         2.430223
