19
Iteration:  4809charge 0 multiplicity 1
 C         4.385123        -1.758873         0.878469
 C         3.265716        -0.824487         0.512101
 O         2.062138        -1.392567        -0.073082
 C         1.435263        -0.103897         0.041715
 C        -0.055422        -0.141876         0.377555
 C         2.176616         0.618923        -1.199212
 C         3.449712         0.463781        -0.374483
 C         2.617993         0.385513         0.995088
 O         2.832655         1.340538         1.973334
 H         4.262431        -2.667031         0.274470
 H         5.466856        -1.377444         0.905093
 H         4.231656        -1.895871         1.959741
 H        -0.655117         0.105059        -0.521298
 H        -0.451669        -1.094037         0.753827
 H        -0.245861         0.677483         1.103924
 H         2.006238         0.047061        -2.133548
 H         1.917751         1.658165        -1.322031
 H         4.348017         1.012590        -0.529412
 H         2.274689         1.142482         2.751235
