19
Iteration:  2045charge 0 multiplicity 1
 C         4.423791        -1.701401         0.882118
 C         3.246939        -0.874658         0.497379
 O         1.945329        -1.462246         0.298284
 C         1.440170        -0.073008         0.141185
 C        -0.035474         0.207181         0.546102
 C         2.056983         0.244178        -1.253790
 C         3.452033         0.273951        -0.598284
 C         2.747273         0.463473         0.805454
 O         2.853825         1.414397         1.873569
 H         5.006903        -1.680836        -0.047152
 H         5.024845        -1.156943         1.721879
 H         4.077079        -2.760174         1.090630
 H        -0.326120        -0.374441         1.397625
 H        -0.031590         1.296064         0.718172
 H        -0.670234         0.002644        -0.300824
 H         1.741473        -0.659738        -1.853997
 H         1.798601         1.215443        -1.739057
 H         4.442211         0.556681        -0.985032
 H         2.934111         2.287498         1.443613
