19
Iteration:   652charge 0 multiplicity 1
 C         4.451055        -1.793644         0.792331
 C         3.348432        -0.889461         0.347395
 O         2.154981        -1.414855        -0.154363
 C         1.447447        -0.021530         0.062587
 C         0.001533        -0.022550         0.208083
 C         2.163498         0.737617        -1.059886
 C         3.428056         0.642889        -0.291847
 C         2.664388         0.271526         1.045441
 O         2.499854         1.123327         2.195303
 H         3.915985        -2.499908         1.477250
 H         4.784322        -2.447661        -0.102088
 H         5.193680        -1.253464         1.367621
 H        -0.378206         0.219879        -0.806091
 H        -0.311840        -1.031152         0.559412
 H        -0.331685         0.844298         0.847874
 H         2.106174         0.247687        -2.104867
 H         1.609486         1.772322        -1.081715
 H         4.368861         1.114351        -0.437474
 H         3.273512         1.038591         2.803746
