19
Iteration:  3681charge 0 multiplicity 1
 C         4.322682        -1.806616         0.930817
 C         3.251646        -0.880761         0.499488
 O         1.966790        -1.422392         0.031655
 C         1.449311        -0.038218         0.067435
 C        -0.093150        -0.153882         0.223182
 C         2.060201         0.620439        -1.189319
 C         3.372786         0.498519        -0.356853
 C         2.755110         0.478248         0.988679
 O         3.024883         1.272696         2.052532
 H         5.010313        -1.774683         0.086852
 H         4.746182        -1.598557         1.939389
 H         3.814247        -2.812274         0.836663
 H        -0.403136         0.747732         0.781629
 H        -0.550392        -0.071121        -0.766741
 H        -0.362183        -1.064860         0.643254
 H         1.996072         0.074240        -2.120301
 H         1.679105         1.660194        -1.355721
 H         4.342481         0.914223        -0.639856
 H         3.208341         2.146755         1.725127
