19
Iteration:  1490charge 0 multiplicity 1
 C         4.430050        -1.655037         0.878305
 C         3.245789        -0.921977         0.392226
 O         1.896035        -1.365193        -0.063119
 C         1.450377         0.005639         0.046882
 C         0.016758        -0.160016         0.531586
 C         2.314445         0.504486        -1.209517
 C         3.486451         0.440274        -0.308140
 C         2.631300         0.465352         0.862096
 O         2.677049         1.266280         2.010790
 H         5.011520        -1.119542         1.627432
 H         4.239778        -2.613912         1.473996
 H         5.241461        -1.945701         0.139373
 H         0.069794        -0.099039         1.641078
 H        -0.669183         0.541164         0.047129
 H        -0.202696        -1.240779         0.379060
 H         2.350768        -0.070930        -2.177564
 H         1.979093         1.553826        -1.456880
 H         4.454003         0.775700        -0.500436
 H         2.210205         2.099588         1.766438
