19
Iteration:  1156
 C         4.380830        -1.639695         1.029468
 C         3.357421        -0.902032         0.330436
 O         2.160875        -1.485710        -0.112452
 C         1.457358        -0.128101         0.035674
 C         0.023006        -0.009944         0.254920
 C         2.007055         0.790678        -1.031587
 C         3.460910         0.504255        -0.407119
 C         2.660705         0.341721         0.933983
 O         2.640492         1.044538         2.103159
 H         3.899308        -2.069251         1.948757
 H         4.761447        -2.445205         0.153708
 H         5.267173        -0.967352         1.445200
 H        -0.308333         0.498439         1.183260
 H        -0.509980         0.610312        -0.493391
 H        -0.326024        -1.011279        -0.037204
 H         1.886406         0.588467        -2.114203
 H         1.682138         1.927621        -0.662354
 H         4.491214         0.915189        -0.590652
 H         2.933282         1.951632         1.991368
