19
Iteration:  2861charge 0 multiplicity 1
 C         4.434711        -1.814040         0.910008
 C         3.284860        -0.814014         0.583551
 O         1.983476        -1.392956         0.404173
 C         1.468879        -0.093959         0.134824
 C        -0.015355         0.131652         0.521885
 C         1.949472         0.140023        -1.220382
 C         3.343407         0.204995        -0.637957
 C         2.788600         0.582516         0.768308
 O         2.887035         1.566094         1.726595
 H         5.360902        -1.288304         0.831028
 H         4.402570        -2.192803         1.884825
 H         4.471211        -2.624411         0.215802
 H        -0.010074         0.492347         1.559774
 H        -0.533604         0.947202        -0.038710
 H        -0.489300        -0.866986         0.393480
 H         1.611288        -0.693251        -1.802042
 H         1.688141         1.083732        -1.716308
 H         4.432546         0.384644        -0.938494
 H         2.850143         2.389756         1.231158
