19
Iteration:  1449
 C         4.372244        -1.723024         0.917789
 C         3.370851        -0.696289         0.412027
 O         2.128771        -1.456391         0.195797
 C         1.456948        -0.219509         0.067812
 C         0.030857        -0.033801         0.186015
 C         2.039884         0.502912        -1.181722
 C         3.366558         0.577073        -0.496994
 C         2.642528         0.559798         0.894238
 O         2.778473         1.069747         2.101383
 H         5.370223        -1.328330         0.991935
 H         3.994181        -1.819060         2.031875
 H         4.340502        -2.627234         0.253804
 H        -0.439486        -0.241727         1.215359
 H        -0.227500         1.022267        -0.144703
 H        -0.657945        -0.793304        -0.358666
 H         1.844470         0.070847        -2.165795
 H         1.634767         1.569250        -1.226609
 H         4.288234         1.125966        -0.633848
 H         2.751873         2.031863         2.126583
