19
Iteration:  3474charge 0 multiplicity 1
 C         4.258502        -1.865017         1.068238
 C         3.337910        -0.863520         0.537277
 O         1.963529        -1.388481         0.116809
 C         1.450134        -0.046469         0.128487
 C        -0.021053        -0.196599         0.396137
 C         2.090522         0.672389        -1.121817
 C         3.419043         0.335904        -0.529957
 C         2.666063         0.457848         0.882466
 O         2.958570         1.454213         1.742463
 H         3.505293        -2.652860         1.273768
 H         5.026330        -2.183234         0.313842
 H         4.733372        -1.665490         2.008852
 H        -0.713871         0.003629        -0.555327
 H        -0.293283        -1.282639         0.759448
 H        -0.390568         0.469349         1.160480
 H         1.733167         0.149987        -2.021764
 H         1.880557         1.785050        -1.190466
 H         4.390274         0.912495        -0.765017
 H         3.730617         1.925365         1.364368
