19
Iteration:  4345charge 0 multiplicity 1
 C         4.227782        -1.717135         1.145139
 C         3.343275        -0.845677         0.368224
 O         2.097573        -1.441567         0.117581
 C         1.521144        -0.130893         0.030419
 C         0.062387        -0.075676         0.551725
 C         2.042164         0.500021        -1.241120
 C         3.404264         0.446428        -0.530413
 C         2.680951         0.550683         0.737464
 O         2.746133         1.286663         1.825783
 H         4.246770        -2.811005         0.922640
 H         5.191033        -1.400636         1.017531
 H         3.889145        -1.604678         2.199612
 H        -0.823399         0.031739        -0.134642
 H        -0.071719        -1.076944         1.105234
 H        -0.037058         0.788996         1.226868
 H         1.836857         0.174575        -2.230097
 H         1.860553         1.599923        -1.209068
 H         4.230137         1.192272        -0.691427
 H         3.560580         1.290637         2.374272
