19
Iteration:  4635
 C         4.329546        -1.878791         0.827041
 C         3.320381        -0.829681         0.471974
 O         2.031752        -1.420518         0.142852
 C         1.451937        -0.089355         0.058430
 C        -0.079992        -0.163400         0.283807
 C         2.137124         0.610339        -1.130942
 C         3.437100         0.498096        -0.376965
 C         2.728130         0.492473         0.933928
 O         2.810251         1.436293         1.921981
 H         4.986243        -2.088187         0.001607
 H         5.014078        -1.427205         1.622489
 H         3.872719        -2.835447         0.916548
 H        -0.498355        -0.919919        -0.468966
 H        -0.167707        -0.521330         1.354953
 H        -0.692888         0.802125         0.187351
 H         2.137034        -0.143745        -1.976618
 H         1.785788         1.610459        -1.305260
 H         4.433854         0.986608        -0.542101
 H         2.535604         1.061710         2.793287
