19
Iteration:  2712charge 0 multiplicity 1
 C         4.468610        -1.705065         0.920543
 C         3.246986        -0.857954         0.556008
 O         1.924909        -1.475582         0.531541
 C         1.398338        -0.139370         0.176438
 C        -0.143203         0.053492         0.379580
 C         1.912205         0.201541        -1.202350
 C         3.365868         0.201783        -0.612545
 C         2.744116         0.586110         0.771757
 O         3.122279         1.669976         1.641715
 H         5.407012        -1.099116         0.711079
 H         4.615115        -2.135150         2.008793
 H         4.467453        -2.449807         0.083994
 H        -0.450673        -0.451186         1.329698
 H        -0.194438         1.140113         0.302303
 H        -0.653727        -0.407716        -0.526319
 H         1.576810        -0.433648        -2.082766
 H         1.818656         1.285872        -1.493685
 H         4.330475         0.658066        -1.005612
 H         3.180572         1.147003         2.462334
