19
Iteration:  2283charge 0 multiplicity 1
 C         4.341830        -1.822044         1.009189
 C         3.231647        -0.961441         0.563091
 O         1.963881        -1.444176         0.345062
 C         1.440186        -0.150968         0.165929
 C         0.099088         0.217388         0.687036
 C         1.988963         0.385244        -1.242105
 C         3.348539         0.216517        -0.641082
 C         2.824254         0.474791         0.686705
 O         2.944449         1.530415         1.584295
 H         3.927900        -2.600172         1.589383
 H         4.869328        -2.159277         0.127181
 H         5.085608        -1.314198         1.636920
 H        -0.018267         0.381732         1.785670
 H        -0.175646         1.123434         0.022907
 H        -0.724954        -0.513350         0.446638
 H         1.897626        -0.256688        -2.131238
 H         1.671613         1.385778        -1.381997
 H         4.281692         0.679248        -0.960972
 H         2.131091         2.018875         1.674919
