19
Iteration:  1241
 C         4.428537        -1.721725         0.870263
 C         3.338005        -0.825033         0.468749
 O         2.099100        -1.437514         0.144641
 C         1.435940        -0.024716         0.043413
 C        -0.061883        -0.085106         0.082215
 C         2.092326         0.655479        -1.164405
 C         3.373346         0.689820        -0.417326
 C         2.703134         0.448928         0.898017
 O         2.743580         0.968881         2.201738
 H         4.458458        -1.873878         1.945494
 H         4.514216        -2.673608         0.240478
 H         5.502218        -1.494304         0.673086
 H        -0.468904        -0.438392         1.067271
 H        -0.324494         0.976232        -0.039427
 H        -0.353456        -0.911415        -0.622402
 H         2.043280         0.090522        -2.081084
 H         1.669032         1.702195        -1.167870
 H         4.342574         1.115337        -0.764961
 H         2.189292         1.787772         2.275768
