19
Iteration:   791
 C         4.552860        -1.502569         0.931101
 C         3.282806        -0.899660         0.406982
 O         2.089786        -1.454055        -0.210119
 C         1.469545        -0.113284        -0.032414
 C        -0.072599         0.037785         0.280011
 C         2.126699         0.729701        -1.158080
 C         3.454708         0.455278        -0.302112
 C         2.574651         0.363988         1.000417
 O         2.586817         0.949726         2.211665
 H         4.498249        -1.853769         1.959224
 H         4.985562        -2.241825         0.373614
 H         5.157538        -0.648098         1.048183
 H        -0.249992         0.732255         1.031589
 H        -0.665098         0.217414        -0.548721
 H        -0.475440        -0.864698         0.633650
 H         2.183846         0.284400        -2.079547
 H         1.925989         1.775326        -1.254675
 H         4.528225         0.733705        -0.438731
 H         3.375029         1.503688         2.164611
