19
Iteration:  3328charge 0 multiplicity 1
 C         4.301085        -1.494391         1.200199
 C         3.242869        -0.927659         0.433364
 O         1.947889        -1.549764         0.273295
 C         1.387864        -0.096223         0.036758
 C         0.023552         0.144210         0.505200
 C         2.072643         0.397675        -1.318050
 C         3.352336         0.210487        -0.532353
 C         2.696452         0.492941         0.745786
 O         3.047165         1.317756         1.766918
 H         5.301539        -1.363713         0.710232
 H         4.333699        -1.101217         2.231656
 H         4.035435        -2.590123         1.209158
 H        -0.033131         0.191689         1.666670
 H        -0.421862         1.079322         0.105021
 H        -0.543545        -0.845202         0.228449
 H         1.763654        -0.103228        -2.262265
 H         1.884909         1.492508        -1.477644
 H         4.424107         0.453781        -0.820352
 H         3.180470         2.203421         1.339871
