19
Iteration:  1373charge 0 multiplicity 1
 C         4.380896        -1.645428         1.012768
 C         3.258511        -0.875608         0.418935
 O         2.068729        -1.471376        -0.000895
 C         1.433002        -0.115300         0.027957
 C        -0.055448        -0.143742         0.321652
 C         2.135450         0.679142        -1.261448
 C         3.417181         0.589264        -0.349116
 C         2.634390         0.395026         0.912795
 O         2.841334         1.139575         2.077970
 H         4.802303        -2.409125         0.372776
 H         5.347364        -1.013730         1.146617
 H         4.062815        -2.163832         1.956583
 H        -0.448302        -1.179382         0.579798
 H        -0.304872         0.683747         1.044411
 H        -0.603373         0.307976        -0.592144
 H         2.230309         0.128488        -2.179505
 H         1.734371         1.687730        -1.595865
 H         4.376322         1.026370        -0.415103
 H         2.561917         2.070398         1.877510
