19
Iteration:  2093charge 0 multiplicity 1
 C         4.458121        -1.629838         0.954704
 C         3.214099        -0.915750         0.540242
 O         1.945926        -1.495346         0.362743
 C         1.444569        -0.103354         0.131485
 C        -0.006628         0.303146         0.510886
 C         1.988129         0.254906        -1.258878
 C         3.380153         0.290401        -0.612044
 C         2.817013         0.450986         0.744018
 O         2.906750         1.326678         1.783585
 H         5.398496        -1.147252         0.611870
 H         4.430788        -1.605129         2.057945
 H         4.327423        -2.634172         0.577338
 H        -0.381170        -0.657582         1.010640
 H        -0.066024         1.150051         1.214008
 H        -0.679868         0.431355        -0.386774
 H         1.833923        -0.358138        -2.139390
 H         1.582337         1.292226        -1.408190
 H         4.347499         0.625566        -0.968191
 H         2.786376         2.226994         1.397989
