19
Iteration:  1818
 C         4.314011        -1.733894         1.047540
 C         3.364108        -0.802281         0.425869
 O         2.107489        -1.483494         0.122789
 C         1.403599        -0.124323         0.077852
 C        -0.036964        -0.053313         0.449321
 C         2.005446         0.415468        -1.211801
 C         3.345397         0.425603        -0.587180
 C         2.763941         0.438411         0.890558
 O         2.879748         1.439824         1.891495
 H         5.129341        -1.138504         1.412394
 H         3.851021        -2.122264         2.036646
 H         4.545499        -2.592495         0.429595
 H        -0.609038        -0.990129         0.427365
 H        -0.290011         0.520461         1.393917
 H        -0.621947         0.641314        -0.224373
 H         1.481382        -0.048398        -2.026128
 H         1.564662         1.446472        -1.219985
 H         4.258831         0.754871        -0.979131
 H         3.753712         1.879249         1.838820
