19
Iteration:   165
 C         4.243155        -1.816878         0.844091
 C         3.346705        -0.772097         0.333334
 O         2.104584        -1.338427        -0.172721
 C         1.486051         0.022517         0.078114
 C        -0.126155        -0.041526        -0.038547
 C         2.091514         0.791193        -1.088724
 C         3.462505         0.663312        -0.234569
 C         2.783497         0.365319         1.071394
 O         2.767359         0.865330         2.337501
 H         3.566474        -2.538677         1.345995
 H         4.676866        -2.336343        -0.023994
 H         4.994997        -1.474765         1.487650
 H        -0.379228         0.760459        -0.673121
 H        -0.282772        -0.957104        -0.538987
 H        -0.587938        -0.007125         0.885469
 H         2.011523         0.423908        -2.060662
 H         1.801542         1.985175        -1.006277
 H         4.396305         1.258726        -0.280575
 H         3.173695         0.352972         3.078897
