19
Iteration:  4928charge 0 multiplicity 1
 C         4.624662        -1.486818         0.840409
 C         3.218005        -0.860312         0.425585
 O         1.927320        -1.422444         0.167664
 C         1.424634        -0.024708         0.097942
 C        -0.034975         0.168385         0.167041
 C         2.120319         0.495473        -1.190003
 C         3.356229         0.367337        -0.504542
 C         2.652689         0.389249         0.915147
 O         2.828005         1.026655         2.178680
 H         5.178938        -1.493031        -0.092335
 H         5.112761        -0.807229         1.600216
 H         4.419622        -2.426679         1.333187
 H        -0.631642        -0.714365        -0.071541
 H        -0.420630         0.372918         1.160831
 H        -0.286002         1.051955        -0.452473
 H         2.156571        -0.206703        -2.114774
 H         1.618089         1.437801        -1.549176
 H         4.412996         0.573229        -0.840620
 H         2.776626         0.397297         2.903287
