19
Iteration:  1712
 C         4.455695        -1.675234         0.999478
 C         3.331792        -0.846082         0.485316
 O         2.019076        -1.540023         0.165309
 C         1.431969        -0.163473         0.058749
 C         0.003365         0.072675         0.524268
 C         2.054445         0.447805        -1.207281
 C         3.446675         0.442559        -0.537438
 C         2.698202         0.460264         0.778167
 O         2.746776         1.363327         1.879865
 H         4.616685        -2.555804         0.305038
 H         5.379637        -1.065643         1.019642
 H         4.371018        -2.133021         2.014661
 H        -0.673010         0.108714        -0.355368
 H        -0.299429        -0.817788         1.110545
 H        -0.102687         1.070221         0.997382
 H         2.112876        -0.194729        -2.111809
 H         1.702140         1.513942        -1.288328
 H         4.420188         0.608426        -0.923490
 H         1.920936         1.868223         1.722094
