19
Iteration:  1746charge 0 multiplicity 1
 C         4.483072        -1.597131         0.968983
 C         3.311626        -0.794049         0.492166
 O         2.043336        -1.474517         0.205391
 C         1.428950        -0.199890         0.067900
 C         0.038509         0.125947         0.352136
 C         1.943888         0.313803        -1.257134
 C         3.335897         0.403336        -0.528959
 C         2.653673         0.472197         0.861128
 O         2.840236         1.275120         2.016343
 H         5.176681        -1.751693         0.088624
 H         5.028411        -1.070564         1.693044
 H         4.080554        -2.537557         1.398173
 H        -0.551032        -0.032275        -0.563348
 H        -0.412818        -0.466300         1.133016
 H        -0.139522         1.117943         0.741251
 H         1.892950        -0.372972        -2.138703
 H         1.582565         1.282390        -1.623437
 H         4.292127         0.698665        -0.962981
 H         3.329141         2.065653         1.650420
