19
Iteration:  4050charge 0 multiplicity 1
 C         4.551484        -1.611711         0.854901
 C         3.297661        -0.859789         0.424017
 O         1.979354        -1.527870         0.282702
 C         1.326091        -0.087110         0.011931
 C        -0.119998         0.161586         0.196215
 C         2.052116         0.468658        -1.230658
 C         3.359472         0.375104        -0.466550
 C         2.746342         0.454365         0.956078
 O         2.946930         1.201513         2.121862
 H         4.420680        -2.679912         0.462959
 H         5.568576        -1.175835         0.536338
 H         4.561709        -1.701242         1.991508
 H        -0.777360         0.552108         1.019189
 H        -0.477495         0.644351        -0.749773
 H        -0.470108        -0.854538        -0.026483
 H         1.911899        -0.230729        -2.059781
 H         1.545083         1.455565        -1.442266
 H         4.447049         0.682361        -0.671513
 H         2.661897         2.148614         1.959547
