19
Iteration:   729charge 0 multiplicity 1
 C         4.362037        -1.730321         0.753019
 C         3.355700        -0.723948         0.455999
 O         2.073020        -1.359962        -0.073323
 C         1.421339        -0.034466        -0.031813
 C        -0.038319        -0.126118         0.193473
 C         2.246833         0.611160        -1.208538
 C         3.459692         0.595887        -0.275681
 C         2.621670         0.500388         0.999722
 O         2.695368         0.975638         2.330364
 H         3.980120        -2.444549         1.496679
 H         4.777242        -2.119212        -0.272833
 H         5.265543        -1.230984         1.179859
 H        -0.747724         0.670764        -0.174711
 H        -0.249155        -1.144703        -0.283048
 H        -0.092226        -0.264244         1.340743
 H         2.293988        -0.018892        -2.177023
 H         1.908136         1.708411        -1.401164
 H         4.397564         1.109943        -0.597473
 H         1.793476         1.212654         2.579174
