19
Iteration:  2019charge 0 multiplicity 1
 C         4.307535        -1.855669         1.067582
 C         3.377654        -0.797996         0.435696
 O         1.999738        -1.440555         0.292944
 C         1.458636        -0.166406         0.070331
 C         0.015381         0.096905         0.471729
 C         1.916731         0.305193        -1.283796
 C         3.347433         0.484084        -0.618890
 C         2.729182         0.498562         0.796619
 O         2.976215         1.391242         1.888879
 H         4.731797        -2.427493         0.236061
 H         5.082169        -1.257975         1.436748
 H         3.695660        -2.428867         1.738271
 H        -0.041013        -0.105692         1.556482
 H        -0.247155         1.121017         0.288749
 H        -0.618829        -0.629941        -0.054533
 H         1.686819        -0.350093        -2.116769
 H         1.519726         1.291220        -1.420738
 H         4.266060         0.969017        -0.953242
 H         3.250588         2.270842         1.540528
