19
Iteration:   677charge 0 multiplicity 1
 C         4.462850        -1.821257         0.801548
 C         3.373259        -0.900462         0.432455
 O         2.127753        -1.453070        -0.173118
 C         1.401896        -0.126186        -0.009706
 C        -0.031028        -0.141146         0.192384
 C         2.147428         0.885492        -0.942956
 C         3.509257         0.557741        -0.215951
 C         2.554378         0.348663         0.984680
 O         2.634176         1.249151         2.039254
 H         3.961447        -2.607243         1.457895
 H         4.758047        -2.310721        -0.203399
 H         5.166167        -1.262910         1.512085
 H        -0.483498         0.608622        -0.491082
 H        -0.437126        -1.153623         0.357372
 H        -0.083847         0.511346         1.070195
 H         1.849225         0.788534        -2.078015
 H         1.857519         1.858050        -0.528812
 H         4.541708         0.985315        -0.217596
 H         2.429871         0.650723         2.771148
