19
Iteration:  1974
 C         4.391430        -1.605065         1.112968
 C         3.168312        -0.882213         0.476722
 O         1.834625        -1.341143         0.117641
 C         1.357269         0.089004         0.039780
 C        -0.030383        -0.197503         0.493541
 C         2.036164         0.466885        -1.229907
 C         3.433252         0.231539        -0.584889
 C         2.728223         0.436388         0.829341
 O         3.162867         1.309865         1.871212
 H         4.186518        -2.703393         1.100799
 H         5.288626        -1.345471         0.656492
 H         4.274373        -1.316180         2.179273
 H        -0.035855         0.173157         1.571510
 H        -0.584800         0.460736        -0.182300
 H        -0.284581        -1.256966         0.369749
 H         1.867378        -0.195310        -2.059884
 H         1.865753         1.510145        -1.512717
 H         4.274671         0.907513        -0.814514
 H         2.945519         2.237030         1.643458
