19
Iteration:  1084
 C         4.436761        -1.724685         0.582517
 C         3.262433        -0.781019         0.582667
 O         2.024246        -1.417530         0.164906
 C         1.455815         0.004407        -0.056505
 C         0.006580        -0.075891         0.185822
 C         2.290628         0.453737        -1.240526
 C         3.479777         0.597260        -0.296257
 C         2.667595         0.535974         0.983925
 O         2.558612         1.074318         2.258768
 H         4.139085        -2.760245         0.771270
 H         4.865537        -1.647733        -0.330387
 H         5.180927        -1.487176         1.306081
 H        -0.157170        -0.233109         1.242301
 H        -0.528539         0.876148        -0.026687
 H        -0.349709        -0.892612        -0.447810
 H         2.180307        -0.266222        -2.051797
 H         1.853254         1.345275        -1.436362
 H         4.557075         0.846387        -0.423579
 H         2.497842         2.032518         2.164487
