19
Iteration:  4783
 C         4.524874        -1.615889         0.816825
 C         3.268965        -0.830736         0.463428
 O         1.984281        -1.529203         0.126375
 C         1.429218        -0.097518         0.019915
 C        -0.044042         0.081177         0.189730
 C         2.110629         0.470792        -1.193420
 C         3.386100         0.544329        -0.403081
 C         2.714859         0.449408         0.957327
 O         2.782497         1.184909         2.111766
 H         4.371866        -2.636935         0.461333
 H         5.474626        -1.184138         0.596103
 H         4.498747        -1.634185         1.909837
 H        -0.546097         0.293225        -0.745593
 H        -0.500964        -0.736246         0.723612
 H        -0.215080         0.871027         0.951963
 H         2.006875        -0.151853        -2.115718
 H         1.870232         1.566580        -1.304521
 H         4.311731         1.001707        -0.852525
 H         2.537562         0.539177         2.788225
