19
Iteration:  2745charge 0 multiplicity 1
 C         4.453831        -1.495499         0.983141
 C         3.211678        -0.883629         0.517771
 O         1.914220        -1.412656         0.511711
 C         1.344906        -0.020611         0.034718
 C        -0.074839         0.076984         0.462946
 C         1.972825         0.111981        -1.307444
 C         3.281599         0.302588        -0.612331
 C         2.730466         0.474497         0.781718
 O         3.170959         1.453306         1.685190
 H         5.316574        -1.239628         0.289278
 H         4.836149        -1.454489         2.119187
 H         4.384910        -2.634573         0.851353
 H        -0.120522        -0.643406         1.326881
 H        -0.111974         1.061141         0.926853
 H        -0.681184        -0.182878        -0.420731
 H         1.648242        -0.851279        -1.822466
 H         1.784801         0.999162        -1.983920
 H         4.340675         0.511659        -0.942452
 H         2.959902         1.438800         2.606643
