19
Iteration:    98
 C         4.498136        -1.723791         0.809740
 C         3.259974        -0.905055         0.406478
 O         1.972823        -1.400325        -0.288540
 C         1.442519        -0.040645        -0.003872
 C        -0.066006         0.094592         0.108892
 C         2.257932         0.829336        -1.014696
 C         3.440158         0.543002        -0.133504
 C         2.635162         0.251617         1.073163
 O         2.745081         0.986237         2.226230
 H         4.279028        -2.488420         1.537918
 H         4.801687        -2.277268        -0.072523
 H         5.292808        -1.127422         1.260111
 H        -0.318726         1.106427         0.052670
 H        -0.527158        -0.368216        -0.762402
 H        -0.461489        -0.349917         1.013805
 H         2.206127         0.542659        -2.003645
 H         1.910880         1.965834        -0.980044
 H         4.408217         0.836680        -0.385457
 H         2.073123         0.629942         2.808927
