19
Iteration:  2257
 C         4.421876        -1.715641         0.839407
 C         3.232052        -0.905235         0.475851
 O         1.834188        -1.410610         0.447999
 C         1.412837         0.046754         0.047090
 C         0.090986         0.255009         0.647158
 C         2.051799         0.153565        -1.373693
 C         3.404597         0.162282        -0.566242
 C         2.768773         0.526893         0.777135
 O         2.917121         1.460757         1.798620
 H         4.182790        -2.607025         1.494149
 H         4.894139        -2.086961        -0.093969
 H         5.247374        -1.199631         1.360796
 H         0.291161         0.399494         1.708357
 H        -0.527280         1.028074         0.265333
 H        -0.489030        -0.669749         0.711636
 H         2.017122        -0.846526        -1.816437
 H         1.809609         0.967200        -2.103563
 H         4.467134         0.228237        -0.891961
 H         2.253574         2.149284         1.691681
