19
Iteration:  2883charge 0 multiplicity 1
 C         4.470238        -1.733532         0.854290
 C         3.284500        -0.837700         0.491213
 O         1.998837        -1.517241         0.599731
 C         1.369362        -0.103871         0.273864
 C        -0.134683         0.160095         0.430754
 C         2.000434         0.173020        -1.254723
 C         3.345948         0.238510        -0.671645
 C         2.777701         0.536589         0.795537
 O         3.051913         1.576888         1.678113
 H         5.294195        -1.274782         1.341990
 H         4.007339        -2.294050         1.581814
 H         4.805367        -2.339016         0.036384
 H        -0.519936         0.691794         1.325836
 H        -0.321661         1.000733        -0.304115
 H        -0.721944        -0.735547         0.108848
 H         1.973105        -0.495901        -2.082676
 H         1.594717         1.103018        -1.685620
 H         4.349844         0.633759        -1.121175
 H         2.142865         2.000164         1.764195
