19
Iteration:  1916
 C         4.468225        -1.693342         0.965121
 C         3.309041        -0.869736         0.460657
 O         2.020400        -1.491950         0.274290
 C         1.439105        -0.081709         0.147369
 C         0.030657         0.180121         0.401464
 C         1.931795         0.261975        -1.288966
 C         3.338912         0.501457        -0.625237
 C         2.708438         0.521098         0.803658
 O         2.892646         1.223099         2.014431
 H         4.069989        -2.182929         1.850720
 H         4.731620        -2.519683         0.212471
 H         5.361755        -1.115137         1.171967
 H        -0.518339         0.125698         1.382792
 H        -0.065073         1.300405         0.110966
 H        -0.512202        -0.445525        -0.398564
 H         1.882783        -0.454119        -2.109975
 H         1.404208         1.190123        -1.629787
 H         4.315883         0.814615        -0.979707
 H         2.776478         2.182535         1.839980
