19
Iteration:  4112charge 0 multiplicity 1
 C         4.360056        -1.730155         0.979704
 C         3.252112        -0.819605         0.389832
 O         1.936096        -1.381683         0.134777
 C         1.420508        -0.095636        -0.035245
 C        -0.063747        -0.074571         0.490932
 C         2.112917         0.416229        -1.321263
 C         3.487960         0.392954        -0.491711
 C         2.774662         0.516064         0.893651
 O         2.865009         1.321837         2.065401
 H         5.067763        -2.018620         0.260251
 H         4.984547        -1.223037         1.786400
 H         3.843101        -2.614834         1.279033
 H        -0.178293        -0.527750         1.516842
 H        -0.310565         0.978541         0.531567
 H        -0.787159        -0.632219        -0.138136
 H         2.070914        -0.354107        -2.149184
 H         1.822484         1.403462        -1.676094
 H         4.465807         0.878899        -0.733232
 H         2.835765         2.245020         1.680402
