19
Iteration:  4519
 C         4.302747        -1.681777         1.130080
 C         3.314123        -0.813818         0.319167
 O         2.055365        -1.416868        -0.081522
 C         1.436189        -0.057245         0.011414
 C        -0.000514        -0.097911         0.595093
 C         2.123709         0.507578        -1.219821
 C         3.478504         0.506262        -0.519878
 C         2.738894         0.425588         0.823786
 O         2.741360         1.287862         1.924410
 H         4.053130        -2.789441         1.083583
 H         5.330103        -1.490672         1.227124
 H         3.872085        -1.720092         2.234118
 H        -0.635143        -0.582422        -0.140830
 H         0.002601        -0.447582         1.686189
 H        -0.434867         0.907917         0.698408
 H         2.077898        -0.162756        -2.061778
 H         1.691184         1.541097        -1.358083
 H         4.381200         1.024075        -0.858283
 H         2.959610         0.767663         2.731128
