19
Iteration:   810
 C         4.434074        -1.521341         0.947815
 C         3.235527        -0.884858         0.454837
 O         2.048951        -1.461975        -0.192593
 C         1.393954        -0.039667        -0.089496
 C        -0.006357        -0.141824         0.332257
 C         2.268371         0.737269        -1.154178
 C         3.457569         0.530722        -0.287925
 C         2.619613         0.335460         0.933475
 O         2.615352         1.052364         2.174774
 H         4.360770        -2.244190         1.847787
 H         4.803511        -2.269833         0.171024
 H         5.315667        -0.794389         1.152559
 H        -0.059634         0.449382         1.284768
 H        -0.712269         0.322874        -0.406954
 H        -0.305648        -1.171464         0.466847
 H         2.198995         0.411494        -2.312364
 H         1.798621         1.727564        -1.120613
 H         4.350611         1.087947        -0.346151
 H         3.540717         1.276605         2.330031
