19
Iteration:  2271
 C         4.388935        -1.784557         0.905000
 C         3.193800        -0.918279         0.553006
 O         1.845197        -1.509892         0.381342
 C         1.476013        -0.056665         0.141315
 C         0.023315         0.261612         0.713754
 C         2.085918         0.211966        -1.293284
 C         3.461440         0.303447        -0.649371
 C         2.814992         0.486466         0.728464
 O         2.926705         1.521383         1.665894
 H         4.075807        -2.621335         1.469703
 H         4.945832        -2.177039         0.094943
 H         4.989986        -1.126668         1.561819
 H         0.052875         0.504744         1.791226
 H        -0.522983         1.141959         0.229031
 H        -0.522728        -0.692687         0.522772
 H         1.740183        -0.407721        -2.132499
 H         1.791556         1.218633        -1.528295
 H         4.473764         0.390983        -1.100706
 H         2.062658         1.979118         1.577941
