19
Iteration:  2889
 C         4.477131        -1.701859         0.845000
 C         3.289471        -0.794321         0.485675
 O         1.961652        -1.491889         0.634418
 C         1.395509        -0.158089         0.248713
 C        -0.093472         0.161197         0.392914
 C         1.987982         0.201553        -1.253593
 C         3.306409         0.238235        -0.644630
 C         2.715120         0.527059         0.779005
 O         3.092658         1.557810         1.650553
 H         5.273521        -1.184972         1.457014
 H         3.987620        -2.522509         1.529664
 H         4.955187        -2.371099         0.070707
 H        -0.395554         0.575956         1.356805
 H        -0.207128         0.950361        -0.351788
 H        -0.665589        -0.715855         0.073793
 H         1.827290        -0.640508        -2.011915
 H         1.650380         1.196332        -1.586321
 H         4.280197         0.557493        -0.895475
 H         2.262687         1.860831         1.998767
