19
Iteration:   620charge 0 multiplicity 1
 C         4.408513        -1.638994         0.760136
 C         3.198110        -0.760167         0.480519
 O         2.057060        -1.356428        -0.016339
 C         1.488737         0.005424        -0.084944
 C        -0.016501        -0.044563         0.261204
 C         2.337334         0.665012        -1.253604
 C         3.507007         0.598496        -0.326183
 C         2.609576         0.432857         0.945396
 O         2.539792         0.774328         2.342327
 H         4.077884        -2.408064         1.508439
 H         4.620035        -2.193812        -0.263504
 H         5.277268        -1.034189         0.993736
 H        -0.590173        -0.630283        -0.442887
 H        -0.194209        -0.492788         1.259060
 H        -0.376375         0.966153         0.470585
 H         2.425703         0.255236        -2.315297
 H         1.909948         1.689386        -1.364534
 H         4.463947         0.995606        -0.538007
 H         3.198595         1.499405         2.523401
