19
Iteration:  3643charge 0 multiplicity 1
 C         4.152518        -1.838067         1.046038
 C         3.249843        -0.845963         0.444047
 O         2.075005        -1.351024         0.017785
 C         1.453179        -0.009245         0.064866
 C        -0.053118        -0.227138         0.405657
 C         2.086983         0.739047        -1.155997
 C         3.490437         0.472902        -0.487425
 C         2.762984         0.449062         0.847724
 O         2.944395         1.239285         1.971307
 H         5.253028        -1.633970         1.037030
 H         3.940520        -2.302755         2.056579
 H         4.067031        -2.792536         0.473568
 H        -0.487596         0.148637         1.345818
 H        -0.596980         0.230150        -0.456395
 H        -0.392843        -1.364640         0.474136
 H         1.781348         0.183782        -2.106098
 H         1.785889         1.797174        -1.069839
 H         4.448696         0.916505        -0.786440
 H         2.952949         2.164259         1.653739
