19
Iteration:   707
 C         4.366095        -1.759295         0.752652
 C         3.234066        -0.888113         0.429578
 O         2.026724        -1.348910        -0.158184
 C         1.445102        -0.002514         0.073395
 C        -0.003054        -0.280846         0.232128
 C         2.271183         0.802054        -1.173159
 C         3.472702         0.618290        -0.198681
 C         2.670504         0.345262         1.002569
 O         2.703200         1.156825         2.215796
 H         4.108211        -2.555244         1.475956
 H         5.023309        -2.136644        -0.138080
 H         5.163875        -1.173478         1.262454
 H        -0.574549         0.419606        -0.440247
 H        -0.281369        -1.356743         0.005225
 H        -0.287707        -0.015613         1.320130
 H         2.203142         0.200259        -2.161172
 H         2.008249         1.933403        -1.325521
 H         4.507234         0.947029        -0.309400
 H         1.737689         1.236436         2.398352
