19
Iteration:  4005charge 0 multiplicity 1
 C         4.261191        -1.751375         1.066363
 C         3.282054        -0.816499         0.373540
 O         1.991927        -1.495916         0.067662
 C         1.454560        -0.042292         0.045643
 C         0.001678        -0.170263         0.467384
 C         2.160268         0.584973        -1.409993
 C         3.416925         0.522917        -0.493193
 C         2.694535         0.528453         0.872110
 O         2.885460         1.227351         2.071612
 H         3.553793        -2.592057         1.057622
 H         5.328224        -1.888979         0.544390
 H         4.402181        -1.367450         2.120254
 H        -0.079283         0.416998         1.451843
 H        -0.891193         0.235634        -0.010571
 H        -0.259720        -1.124741         0.790396
 H         2.000255         0.042917        -2.382894
 H         1.953153         1.680494        -1.504489
 H         4.406339         0.894662        -0.688118
 H         3.062701         2.164384         1.756076
