19
Iteration:  2798
 C         4.348941        -1.614417         1.240132
 C         3.342074        -0.835539         0.419061
 O         2.000068        -1.503394         0.243687
 C         1.439342        -0.060722         0.178271
 C         0.154613         0.134695         0.676973
 C         1.860416         0.287775        -1.322445
 C         3.293957         0.129826        -0.758874
 C         2.718717         0.471052         0.712897
 O         2.913297         1.525920         1.622548
 H         5.352710        -1.516168         0.759287
 H         4.390658        -1.223062         2.319446
 H         4.033303        -2.666682         1.445550
 H         0.167266        -0.519965         1.568929
 H        -0.194389         1.132107         0.844546
 H        -0.479788        -0.462032         0.053639
 H         1.510492        -0.397283        -2.101186
 H         1.751269         1.388699        -1.490726
 H         4.192988         0.798797        -0.956779
 H         3.529173         1.396980         2.354720
