19
Iteration:  4165
 C         4.329439        -1.821475         1.210805
 C         3.310890        -0.889201         0.315330
 O         2.048461        -1.488986        -0.062031
 C         1.453967        -0.104715         0.077438
 C        -0.014424        -0.070189         0.604824
 C         2.090308         0.582262        -1.197573
 C         3.394620         0.434028        -0.531128
 C         2.712218         0.500730         0.821309
 O         2.828859         1.383104         1.869816
 H         5.235790        -2.244403         0.866239
 H         4.602012        -1.269936         2.153670
 H         3.756558        -2.641409         1.568126
 H        -0.298950        -1.085075         0.971318
 H        -0.129811         0.759223         1.312521
 H        -0.767338         0.196772        -0.286836
 H         1.889287         0.213693        -2.212516
 H         1.802249         1.589744        -1.091763
 H         4.423340         0.742323        -0.864842
 H         2.895177         2.293456         1.462417
