19
Iteration:  4135charge 0 multiplicity 1
 C         4.212924        -1.832831         1.122346
 C         3.222643        -0.801738         0.465689
 O         2.126724        -1.471104         0.085249
 C         1.498421        -0.012391         0.048681
 C         0.083003        -0.095987         0.546340
 C         2.086851         0.541574        -1.251816
 C         3.369285         0.466592        -0.534236
 C         2.677254         0.514359         0.798946
 O         2.857662         1.292736         1.849730
 H         5.004831        -2.130585         0.457015
 H         4.795368        -1.498094         2.071567
 H         3.525720        -2.682919         1.152029
 H        -0.045010        -0.962984         1.272767
 H        -0.171495         0.837674         1.065409
 H        -0.601966        -0.328182        -0.222322
 H         1.888321         0.012347        -2.226840
 H         1.753846         1.618377        -1.274348
 H         4.405564         0.874582        -0.803150
 H         2.662641         2.199555         1.619064
