19
Iteration:  4583
 C         4.562011        -1.509303         0.810426
 C         3.244782        -0.905992         0.471711
 O         1.966532        -1.481964         0.158664
 C         1.427238        -0.006367         0.110497
 C        -0.119068         0.137516         0.228888
 C         2.131687         0.295081        -1.201103
 C         3.382064         0.440107        -0.425729
 C         2.713285         0.445437         0.950337
 O         2.841389         1.216607         2.060370
 H         5.001912        -2.236029         0.081751
 H         5.320507        -0.738957         0.829808
 H         4.296502        -2.190824         1.682147
 H        -0.421063         0.163705        -0.823031
 H        -0.712910        -0.650312         0.801624
 H        -0.364793         1.110031         0.466856
 H         2.120031        -0.368321        -2.120254
 H         1.657663         1.276224        -1.562627
 H         4.366541         0.818462        -0.633515
 H         2.471184         0.743570         2.869527
