19
Iteration:  3913charge 0 multiplicity 1
 C         4.464539        -1.658148         0.739436
 C         3.252853        -0.800257         0.555047
 O         2.005592        -1.428740         0.227889
 C         1.465927         0.012797         0.078166
 C        -0.023773         0.080605         0.212994
 C         2.169151         0.413730        -1.310112
 C         3.402646         0.401489        -0.427331
 C         2.618802         0.515192         0.945396
 O         2.780414         1.063714         2.154202
 H         4.495198        -1.896600         1.843059
 H         4.419835        -2.559297         0.145681
 H         5.387864        -1.163069         0.427543
 H        -0.310589         0.937424         0.665257
 H        -0.341217         0.121866        -0.796020
 H        -0.359865        -0.840207         0.734336
 H         1.917776        -0.255269        -2.158936
 H         1.732929         1.405220        -1.543822
 H         4.430313         0.932385        -0.647716
 H         2.614111         2.005828         2.139120
