19
Iteration:  2311charge 0 multiplicity 1
 C         4.298345        -1.836692         1.139442
 C         3.317800        -0.928232         0.414201
 O         1.978711        -1.495438         0.264014
 C         1.394082        -0.082626         0.163627
 C         0.002646         0.125413         0.663019
 C         1.937685         0.345345        -1.214756
 C         3.368271         0.233101        -0.677130
 C         2.817410         0.463001         0.766695
 O         3.094315         1.650303         1.582268
 H         3.531435        -2.182434         1.908385
 H         4.662452        -2.654889         0.470636
 H         5.094388        -1.276812         1.682656
 H        -0.203349        -0.376362         1.595784
 H        -0.433866         1.083302         0.590692
 H        -0.566480        -0.422681        -0.104547
 H         1.577648        -0.176999        -2.125258
 H         1.645689         1.450700        -1.275399
 H         4.245925         0.721156        -1.142560
 H         2.425486         1.969843         2.213894
