19
Iteration:   806charge 0 multiplicity 1
 C         4.477907        -1.500913         0.968644
 C         3.208273        -0.861915         0.469792
 O         2.059689        -1.469679        -0.222754
 C         1.379427        -0.046112        -0.082734
 C        -0.031976        -0.103981         0.328135
 C         2.292503         0.704700        -1.155342
 C         3.423889         0.524649        -0.276564
 C         2.619907         0.301733         0.901714
 O         2.620005         1.039930         2.194172
 H         4.394327        -2.150554         1.827521
 H         4.883691        -2.250813         0.178963
 H         5.324398        -0.790498         1.038419
 H        -0.084440         0.566066         1.259363
 H        -0.703981         0.398666        -0.459732
 H        -0.298819        -1.206947         0.542118
 H         2.105306         0.454515        -2.233817
 H         1.864333         1.754192        -1.003549
 H         4.416383         0.963668        -0.480977
 H         3.536945         1.348743         2.368580
