19
Iteration:  4970charge 0 multiplicity 1
 C         4.320675        -1.657712         0.957125
 C         3.245957        -0.768216         0.442327
 O         2.072444        -1.431959         0.040240
 C         1.430019        -0.113438         0.024295
 C         0.032676        -0.005509         0.326857
 C         2.105147         0.579413        -1.212872
 C         3.417573         0.527505        -0.454975
 C         2.627760         0.471776         0.914640
 O         2.819118         1.084738         2.073255
 H         4.472156        -2.555659         0.368619
 H         5.257005        -1.037581         1.001030
 H         4.125986        -1.867351         1.993979
 H        -0.544303        -0.777915        -0.236819
 H        -0.287763        -0.145826         1.347430
 H        -0.238911         1.101989         0.111877
 H         1.939678        -0.106018        -2.115351
 H         1.721098         1.633295        -1.413317
 H         4.409613         0.796665        -0.927668
 H         3.486061         0.548864         2.513725
