19
Iteration:  3177charge 0 multiplicity 1
 C         4.342551        -1.660379         1.306992
 C         3.400800        -0.785605         0.391921
 O         1.887385        -1.431258         0.354319
 C         1.417079        -0.181229         0.105321
 C         0.079011         0.288224         0.629407
 C         1.971521         0.143945        -1.383305
 C         3.381211         0.271312        -0.784779
 C         2.756463         0.492550         0.647082
 O         2.880159         1.346620         1.761338
 H         5.013568        -0.860415         1.835264
 H         3.589166        -2.063807         2.049876
 H         4.987359        -2.479993         0.831969
 H        -0.162696        -0.270721         1.555110
 H         0.148868         1.330641         0.806746
 H        -0.797299         0.227401         0.022755
 H         1.837779        -0.696837        -2.082219
 H         1.679340         1.192757        -1.695921
 H         4.385071         0.633230        -1.181770
 H         3.616246         1.951128         1.477362
