19
Iteration:  2481charge 0 multiplicity 1
 C         4.235166        -1.922334         1.085842
 C         3.265135        -0.840603         0.544338
 O         2.060726        -1.487189         0.295543
 C         1.450360        -0.106520         0.240793
 C         0.052975         0.039904         0.700041
 C         1.945421         0.339618        -1.273199
 C         3.395332         0.246715        -0.609844
 C         2.786733         0.610269         0.684797
 O         2.978233         1.704539         1.425551
 H         3.657276        -2.678114         1.511518
 H         4.729437        -2.399718         0.213681
 H         4.885033        -1.474289         1.779241
 H        -0.124453        -0.015473         1.840719
 H        -0.661476         0.890562         0.607031
 H        -0.640767        -0.739268         0.276377
 H         1.610105        -0.161727        -2.193305
 H         1.683801         1.436280        -1.241079
 H         4.481863         0.429689        -0.728716
 H         2.960245         1.286157         2.333815
