19
Iteration:  4577charge 0 multiplicity 1
 C         4.549202        -1.503016         0.852898
 C         3.254672        -0.894485         0.422214
 O         1.963124        -1.476993         0.163179
 C         1.439528        -0.091387         0.127069
 C        -0.144620         0.170555         0.268664
 C         2.138241         0.365726        -1.235244
 C         3.364423         0.407341        -0.425929
 C         2.753552         0.439145         0.920864
 O         2.838774         1.187791         2.056041
 H         4.912771        -2.226402         0.109251
 H         5.352078        -0.724128         0.886807
 H         4.483966        -1.783783         1.927121
 H        -0.533457         0.054929        -0.774769
 H        -0.752177        -0.597300         0.702660
 H        -0.481330         1.242859         0.616761
 H         2.219270        -0.326765        -2.053094
 H         1.802496         1.293804        -1.663426
 H         4.372217         0.793123        -0.624013
 H         2.300462         0.610690         2.634703
