19
Iteration:  4024
 C         4.301284        -1.711622         0.972818
 C         3.247461        -0.778516         0.489324
 O         2.030649        -1.341839         0.106390
 C         1.385184        -0.120888        -0.005928
 C        -0.014423        -0.046909         0.356092
 C         2.112194         0.477721        -1.187818
 C         3.426463         0.437817        -0.465344
 C         2.696559         0.516804         0.873923
 O         2.926337         1.151405         2.017463
 H         4.125645        -2.757962         0.856180
 H         5.169855        -1.375031         0.313937
 H         4.622884        -1.500017         1.985685
 H        -0.272031         0.420893         1.266223
 H        -0.591974         0.364361        -0.430374
 H        -0.346452        -1.069570         0.448835
 H         1.968475        -0.318447        -1.990789
 H         1.742500         1.446539        -1.497550
 H         4.318656         0.842219        -0.807148
 H         2.863476         2.139939         1.909062
