19
Iteration:  2863charge 0 multiplicity 1
 C         4.427034        -1.807440         0.909510
 C         3.291066        -0.820828         0.574612
 O         1.996758        -1.407315         0.415075
 C         1.471459        -0.096929         0.135566
 C        -0.060991         0.149150         0.512884
 C         1.951068         0.136304        -1.217014
 C         3.345017         0.216335        -0.638735
 C         2.820007         0.578310         0.761788
 O         2.894226         1.573201         1.733362
 H         5.348979        -1.236252         0.841985
 H         4.404794        -2.312134         1.868266
 H         4.498368        -2.630935         0.204857
 H        -0.074832         0.486770         1.567791
 H        -0.540989         0.920052        -0.071528
 H        -0.490145        -0.830103         0.381037
 H         1.595743        -0.736959        -1.772025
 H         1.698484         1.109648        -1.677490
 H         4.389683         0.388771        -0.971213
 H         2.746878         2.376922         1.226058
