19
Iteration:  1609charge 0 multiplicity 1
 C         4.483224        -1.525887         0.950428
 C         3.222958        -0.907021         0.444949
 O         1.955926        -1.483516         0.187546
 C         1.436755        -0.034640         0.110492
 C        -0.191745        -0.066381         0.233767
 C         2.168528         0.540663        -1.174035
 C         3.466447         0.348249        -0.461358
 C         2.692417         0.442884         0.890317
 O         2.851288         1.303102         1.947956
 H         4.416676        -2.041562         1.921563
 H         4.784692        -2.394618         0.277448
 H         5.282442        -0.768734         0.951905
 H        -0.482133        -1.108472         0.374768
 H        -0.385739         0.567479         1.077941
 H        -0.690651         0.338021        -0.665097
 H         1.942887        -0.077218        -2.068869
 H         1.707578         1.548518        -1.268833
 H         4.416491         0.743561        -0.828494
 H         3.510207         0.947327         2.555676
