19
Iteration:  4022charge 0 multiplicity 1
 C         4.289830        -1.703019         0.972717
 C         3.245293        -0.773364         0.475689
 O         2.036819        -1.352725         0.109036
 C         1.386337        -0.105193        -0.032253
 C        -0.015082        -0.054353         0.386539
 C         2.112253         0.485429        -1.201004
 C         3.425292         0.440985        -0.461309
 C         2.693574         0.504743         0.859360
 O         2.925397         1.163362         2.027854
 H         4.107663        -2.764026         0.901530
 H         5.153943        -1.522607         0.374591
 H         4.563057        -1.527320         1.994069
 H        -0.228718         0.418776         1.317909
 H        -0.587407         0.335006        -0.470145
 H        -0.294317        -1.167996         0.465455
 H         2.020180        -0.267841        -2.013364
 H         1.706603         1.438177        -1.486446
 H         4.384954         0.836021        -0.766667
 H         2.897298         2.149613         1.927329
