19
Iteration:  4084charge 0 multiplicity 1
 C         4.512170        -1.581314         0.836545
 C         3.183966        -0.808325         0.605127
 O         1.921517        -1.481882         0.230527
 C         1.436607        -0.121605         0.083798
 C        -0.035247         0.135523         0.269883
 C         2.053495         0.387621        -1.221732
 C         3.429839         0.378310        -0.428032
 C         2.689113         0.505858         0.855388
 O         2.911573         1.142126         2.015166
 H         4.790670        -1.950541        -0.245369
 H         5.281692        -0.841732         1.104407
 H         4.385666        -2.376097         1.637988
 H        -0.646653         0.198780         1.213216
 H        -0.437525         0.954109        -0.389826
 H        -0.333286        -0.815755        -0.281599
 H         1.933887        -0.307272        -2.049806
 H         1.718601         1.416873        -1.583090
 H         4.459990         0.737067        -0.706817
 H         3.041639         2.097976         1.803317
