19
Iteration:   406
 C         4.391246        -1.795805         0.759981
 C         3.222623        -0.858862         0.361341
 O         1.955945        -1.325747        -0.156076
 C         1.493801         0.025564        -0.096196
 C         0.001777        -0.039489         0.248778
 C         2.337036         0.793371        -1.099541
 C         3.501971         0.681405        -0.200794
 C         2.627267         0.449563         0.989421
 O         2.614376         0.747499         2.313114
 H         4.098221        -2.499122         1.588533
 H         4.689869        -2.225724        -0.201728
 H         5.284187        -1.172583         1.057095
 H        -0.557760         0.827366        -0.127798
 H        -0.254125        -1.049197        -0.172013
 H         0.057382        -0.079416         1.325148
 H         2.529949         0.394928        -2.092298
 H         1.895364         1.854751        -1.187144
 H         4.579303         0.856516        -0.293461
 H         2.399633         1.705595         2.465988
