19
Iteration:  3728
 C         4.535915        -1.634994         0.718348
 C         3.199238        -0.878305         0.499380
 O         1.931106        -1.464851         0.226919
 C         1.480388        -0.144155         0.039129
 C        -0.038966         0.224697         0.227699
 C         2.149935         0.506535        -1.246260
 C         3.410878         0.470424        -0.486090
 C         2.696032         0.446501         0.957278
 O         2.782589         1.042561         2.219048
 H         4.734131        -2.409547        -0.073158
 H         5.268184        -0.892126         0.914070
 H         4.429692        -2.112717         1.695935
 H        -0.238225         1.186478        -0.176199
 H        -0.628123        -0.537328        -0.338364
 H        -0.408150        -0.042533         1.281615
 H         2.022433        -0.121075        -2.145729
 H         1.817455         1.512854        -1.474344
 H         4.431898         0.724290        -0.826094
 H         2.712585         1.987552         1.939114
