19
Iteration:  3291charge 0 multiplicity 1
 C         4.230194        -1.885226         1.203718
 C         3.284714        -0.812164         0.508465
 O         1.963874        -1.380314         0.310778
 C         1.420084         0.044519         0.048423
 C        -0.055370        -0.120707         0.504640
 C         2.016353         0.257160        -1.413087
 C         3.342699         0.316586        -0.620744
 C         2.820472         0.612974         0.813057
 O         3.081323         1.567095         1.783869
 H         5.298784        -1.571715         1.221502
 H         3.818667        -2.135588         2.233114
 H         4.229153        -2.840330         0.642883
 H        -0.022512        -0.852875         1.290060
 H        -0.541402         0.829106         0.882320
 H        -0.707657        -0.485542        -0.325510
 H         1.969375        -0.590141        -2.135802
 H         1.786213         1.237528        -1.846830
 H         4.330048         0.489026        -0.944711
 H         3.179044         2.430632         1.364724
