19
Iteration:  1266charge 0 multiplicity 1
 C         4.544105        -1.607934         0.795384
 C         3.334659        -0.868639         0.464485
 O         2.039778        -1.513258         0.007618
 C         1.442989        -0.175405         0.093324
 C        -0.023309         0.055341         0.150762
 C         2.120461         0.666266        -1.112547
 C         3.433355         0.466108        -0.333868
 C         2.602734         0.367671         0.971346
 O         2.620461         1.133220         2.144032
 H         4.510873        -1.993527         1.807097
 H         4.871483        -2.372446         0.054005
 H         5.468839        -1.025994         0.825146
 H        -0.402916        -0.597326         0.917416
 H        -0.105660         1.031874         0.554015
 H        -0.492970        -0.239693        -0.766954
 H         1.987592         0.181321        -2.076713
 H         1.799878         1.747571        -1.047590
 H         4.406957         0.840217        -0.515150
 H         2.689253         2.093366         1.911371
