19
Iteration:  2550
 C         4.448522        -1.515993         0.908744
 C         3.168582        -0.872600         0.545140
 O         1.856905        -1.458727         0.588198
 C         1.386394        -0.047952         0.045922
 C        -0.048218         0.161510         0.444623
 C         1.932284         0.095764        -1.337454
 C         3.333294         0.174994        -0.572698
 C         2.725269         0.598540         0.740802
 O         3.245079         1.462370         1.685036
 H         4.527261        -2.301270         1.666314
 H         4.931180        -2.055715         0.123363
 H         5.081666        -0.743072         1.290095
 H        -0.189407        -0.600603         1.374992
 H        -0.462320         1.144780         0.711769
 H        -0.889962        -0.147585        -0.293475
 H         1.633853        -0.642234        -2.088878
 H         1.733064         1.128403        -1.618696
 H         4.314454         0.417168        -0.938578
 H         3.105253         1.059006         2.530172
