19
Iteration:  4545charge 0 multiplicity 1
 C         4.424188        -1.534224         1.068131
 C         3.250670        -0.816927         0.446060
 O         2.030093        -1.492346         0.110566
 C         1.470301        -0.143718        -0.045329
 C         0.091752         0.102844         0.421716
 C         2.044430         0.538690        -1.298821
 C         3.333979         0.396763        -0.515815
 C         2.699997         0.435082         0.797899
 O         2.815733         1.141340         2.011500
 H         4.346771        -2.603264         0.824385
 H         5.457007        -1.072138         0.957710
 H         4.319927        -1.566256         2.153386
 H        -0.573635        -0.133930        -0.457087
 H        -0.079947        -0.634102         1.205189
 H        -0.239862         1.136769         0.913465
 H         1.988975         0.144905        -2.312869
 H         1.699602         1.537634        -1.151928
 H         4.255511         0.922577        -0.735833
 H         2.277482         0.577427         2.583333
