19
Iteration:  4913
 C         4.477147        -1.495953         0.772754
 C         3.212417        -0.833591         0.496626
 O         1.931930        -1.505973         0.116900
 C         1.435532        -0.101642         0.063031
 C        -0.062437         0.154115         0.273245
 C         2.118761         0.443056        -1.262072
 C         3.456419         0.408201        -0.370766
 C         2.707219         0.493753         0.902059
 O         2.852186         1.082085         2.142459
 H         5.283708        -1.378533         0.020375
 H         4.979874        -0.949619         1.542843
 H         4.474707        -2.560348         1.061182
 H        -0.592319        -0.702395        -0.188103
 H        -0.334082         0.313028         1.318486
 H        -0.341136         0.949865        -0.500967
 H         1.867530        -0.087100        -2.172555
 H         2.025422         1.552644        -1.419454
 H         4.390120         0.843117        -0.573742
 H         2.323166         0.420199         2.700059
