19
Iteration:   835charge 0 multiplicity 1
 C         4.346316        -1.783399         0.889853
 C         3.381984        -0.810727         0.376289
 O         2.122206        -1.364030        -0.063753
 C         1.453040        -0.051262         0.046339
 C         0.027529        -0.241339         0.293442
 C         2.188315         0.707351        -1.180547
 C         3.415153         0.667812        -0.355813
 C         2.677263         0.464214         0.970761
 O         2.531856         1.109914         2.138481
 H         3.826638        -2.523894         1.520321
 H         4.791022        -2.379723         0.148014
 H         5.083473        -1.372043         1.570406
 H        -0.220450        -0.030159         1.280567
 H        -0.514340         0.354688        -0.362690
 H        -0.271894        -1.231340         0.044564
 H         2.012145         0.300027        -2.145008
 H         1.803878         1.721337        -1.162640
 H         4.494720         0.939820        -0.624035
 H         3.413814         1.301094         2.477853
