19
Iteration:    64charge 0 multiplicity 1
 C         4.356452        -1.880507         0.756050
 C         3.310406        -0.891016         0.395925
 O         2.117718        -1.448298        -0.205418
 C         1.521494        -0.060879        -0.002456
 C         0.014041         0.108977         0.307697
 C         2.269631         0.827297        -1.023736
 C         3.494739         0.640028        -0.216644
 C         2.697205         0.316343         0.996100
 O         2.438924         1.061525         2.128498
 H         3.948065        -2.608001         1.415862
 H         4.652762        -2.344397        -0.182759
 H         5.340724        -1.450412         1.108691
 H        -0.021243         0.890564         1.016776
 H        -0.497690         0.366609        -0.620550
 H        -0.453415        -0.797470         0.735826
 H         2.257760         0.516249        -2.028283
 H         1.876400         1.930070        -0.811167
 H         4.531749         0.967477        -0.391572
 H         2.252495         0.432699         2.854805
