19
Iteration:  1224charge 0 multiplicity 1
 C         4.286594        -1.672950         0.900482
 C         3.299330        -0.652601         0.390878
 O         2.067903        -1.360250         0.024319
 C         1.467296        -0.108761        -0.035955
 C        -0.082272        -0.211851         0.187819
 C         2.154388         0.605402        -1.235047
 C         3.441861         0.634112        -0.425778
 C         2.685400         0.553235         0.999571
 O         2.861888         0.937477         2.302622
 H         4.286377        -1.895024         2.018272
 H         4.079814        -2.623180         0.377494
 H         5.353182        -1.475638         0.655915
 H        -0.443972        -0.246892         1.213833
 H        -0.623652         0.601108        -0.338594
 H        -0.353672        -1.110113        -0.382475
 H         2.233682        -0.084228        -2.116109
 H         1.677755         1.567959        -1.482485
 H         4.422936         1.030420        -0.555036
 H         2.233962         1.681564         2.431652
