19
Iteration:  3490charge 0 multiplicity 1
 C         4.197798        -1.800668         1.018198
 C         3.233635        -0.859620         0.444488
 O         2.023831        -1.379584         0.095821
 C         1.436133        -0.009882         0.079847
 C        -0.081405        -0.156556         0.446679
 C         2.065970         0.478631        -1.227557
 C         3.444187         0.363205        -0.470675
 C         2.770237         0.531399         0.863778
 O         2.965112         1.413042         1.924741
 H         3.808455        -2.746955         1.422722
 H         4.851571        -2.260485         0.273936
 H         4.872846        -1.258794         1.734404
 H        -0.591944        -0.346481        -0.449517
 H        -0.186881        -1.044284         1.014784
 H        -0.559175         0.752269         0.899393
 H         1.943773         0.031800        -2.236329
 H         1.886837         1.539639        -1.355566
 H         4.449464         0.610913        -0.734425
 H         3.669399         2.077014         1.674146
