19
Iteration:  4599
 C         4.497366        -1.658428         0.760702
 C         3.257267        -0.821294         0.533194
 O         1.990547        -1.472007         0.207703
 C         1.429806        -0.140200         0.062048
 C        -0.018036         0.089162         0.133242
 C         2.075001         0.426464        -1.203581
 C         3.369775         0.424920        -0.388588
 C         2.632371         0.466311         0.976502
 O         2.852751         1.312819         2.056737
 H         4.810783        -1.827048        -0.266168
 H         5.267611        -0.989138         1.240796
 H         4.532461        -2.433698         1.517814
 H        -0.634863        -0.164548        -0.739699
 H        -0.379718        -0.630541         0.827179
 H        -0.271188         1.129507         0.596101
 H         1.961387        -0.392873        -1.895939
 H         1.826856         1.352401        -1.686473
 H         4.392034         0.816474        -0.678842
 H         2.841779         0.687103         2.808869
