19
Iteration:  4421
 C         4.531395        -1.561932         0.758746
 C         3.200760        -0.964871         0.601962
 O         1.975436        -1.557141         0.286167
 C         1.440116        -0.208668         0.056179
 C        -0.084417         0.133806         0.227663
 C         2.074263         0.384031        -1.237594
 C         3.335809         0.447411        -0.449371
 C         2.694974         0.474792         0.894095
 O         2.956229         1.375584         2.011811
 H         5.101486        -1.882289        -0.162486
 H         5.100340        -0.865101         1.326745
 H         4.465067        -2.597003         1.205170
 H        -0.716371        -0.234119        -0.645501
 H        -0.631032        -0.024519         1.290119
 H        -0.144458         1.260029         0.035647
 H         2.210925        -0.315319        -2.015940
 H         1.555336         1.309642        -1.560302
 H         4.436384         0.806088        -0.596599
 H         2.170343         1.426764         2.574652
