19
Iteration:  3783
 C         4.305917        -1.767335         1.042411
 C         3.259704        -0.809435         0.416290
 O         2.048957        -1.442111        -0.104320
 C         1.485135        -0.088272        -0.041039
 C         0.072541         0.028728         0.556255
 C         2.139009         0.615693        -1.310796
 C         3.420294         0.578714        -0.482078
 C         2.713188         0.445795         0.876365
 O         2.727314         1.044973         2.135397
 H         3.706935        -2.726401         0.988383
 H         5.207329        -1.856926         0.458123
 H         4.454270        -1.444245         2.078630
 H        -0.535895         0.739079         0.039157
 H        -0.353485        -0.967621         0.737144
 H         0.328024         0.528246         1.551041
 H         2.020010        -0.016900        -2.232059
 H         1.880540         1.650560        -1.511330
 H         4.494510         0.876059        -0.764691
 H         2.394771         1.957629         1.892260
