19
Iteration:  2144
 C         4.279092        -1.794658         1.163622
 C         3.193690        -0.811197         0.481943
 O         1.898147        -1.400702         0.318415
 C         1.404353        -0.022068         0.093342
 C        -0.023194        -0.089600         0.588255
 C         2.004201         0.334011        -1.287867
 C         3.400358         0.377927        -0.633779
 C         2.740051         0.633406         0.708538
 O         3.180779         1.366169         1.706751
 H         4.726102        -1.041714         1.823997
 H         3.619971        -2.620671         1.594165
 H         5.013654        -2.250846         0.453589
 H         0.004686        -0.986514         1.185859
 H        -0.118708         0.764456         1.244530
 H        -0.839411        -0.072569        -0.089452
 H         1.902522        -0.514260        -2.000789
 H         1.806224         1.323959        -1.757543
 H         4.272865         0.539998        -1.248268
 H         3.138466         2.323125         1.449428
