19
Iteration:  1787charge 0 multiplicity 1
 C         4.442343        -1.574959         0.995321
 C         3.252914        -0.800728         0.464341
 O         1.882956        -1.388056         0.319482
 C         1.403690        -0.016973         0.053741
 C        -0.015882        -0.127721         0.405400
 C         2.131430         0.442019        -1.334557
 C         3.370105         0.395711        -0.546134
 C         2.685609         0.469791         0.835456
 O         2.913706         1.233019         1.898524
 H         5.459624        -1.298991         0.540982
 H         4.487087        -1.449267         2.147096
 H         4.452703        -2.685605         0.757038
 H        -0.507791        -1.048734        -0.050885
 H        -0.215950        -0.246552         1.549498
 H        -0.617992         0.747022         0.001618
 H         1.764814        -0.268009        -2.135156
 H         1.797209         1.531712        -1.444344
 H         4.336671         0.629567        -0.872757
 H         3.813373         1.568156         1.967031
