19
Iteration:  3658charge 0 multiplicity 1
 C         4.216087        -1.881968         0.984976
 C         3.374069        -0.817744         0.405699
 O         1.989833        -1.379041         0.088512
 C         1.385360        -0.073010         0.071213
 C        -0.120589        -0.260788         0.294712
 C         2.116750         0.727955        -1.139754
 C         3.425405         0.440753        -0.491816
 C         2.764137         0.491598         0.898889
 O         2.982391         1.283417         2.010647
 H         5.269898        -1.784960         0.722687
 H         3.952394        -1.684776         2.089497
 H         3.719743        -2.879582         0.657552
 H        -0.297331         0.414263         1.185459
 H        -0.766847        -0.028512        -0.529594
 H        -0.133475        -1.264497         0.494473
 H         1.968699         0.651841        -2.218402
 H         2.027948         1.850365        -0.944900
 H         4.461960         0.931371        -0.613471
 H         3.078761         2.241391         1.711741
