19
Iteration:  4249
 C         4.527150        -1.661760         0.814261
 C         3.347432        -0.752213         0.561189
 O         1.912112        -1.474281         0.289609
 C         1.421116        -0.116258         0.128418
 C         0.020254         0.120500         0.129441
 C         2.059540         0.351243        -1.190448
 C         3.333275         0.399905        -0.521125
 C         2.690966         0.541016         0.900685
 O         2.882449         1.208575         2.077188
 H         4.293892        -2.675291         0.206786
 H         5.422998        -1.312549         0.333178
 H         4.694878        -1.868602         1.921655
 H        -0.526324        -0.749474         0.026600
 H        -0.275291         0.393246         1.132120
 H        -0.309849         0.761526        -0.676536
 H         1.826328        -0.511670        -1.868718
 H         1.796888         1.362085        -1.707552
 H         4.220245         0.934134        -0.887138
 H         2.115920         1.767054         2.227390
