19
Iteration:  3661charge 0 multiplicity 1
 C         4.234755        -1.894007         0.962292
 C         3.356964        -0.826153         0.394635
 O         1.993737        -1.381482         0.105124
 C         1.331266        -0.084776         0.047192
 C        -0.099688        -0.232334         0.282911
 C         2.126788         0.727715        -1.129000
 C         3.441547         0.466800        -0.493311
 C         2.727883         0.483542         0.894959
 O         2.999878         1.304197         2.039006
 H         5.292195        -1.827962         0.721004
 H         4.049521        -1.678914         1.977064
 H         3.792065        -2.911160         0.858289
 H        -0.325487         0.380524         1.129781
 H        -0.727616        -0.071072        -0.615501
 H        -0.083722        -1.292743         0.536274
 H         1.933588         0.558415        -2.184265
 H         1.982883         1.790218        -0.931620
 H         4.424205         0.822116        -0.596524
 H         3.101502         2.219634         1.712186
