19
Iteration:  3634
 C         4.210770        -1.890134         1.034845
 C         3.249380        -0.873632         0.475227
 O         2.054558        -1.377128        -0.034627
 C         1.409866        -0.009458         0.059225
 C         0.010683        -0.151596         0.427267
 C         2.072382         0.653222        -1.153564
 C         3.470848         0.543724        -0.503725
 C         2.710102         0.471700         0.865940
 O         2.939373         1.231367         1.996242
 H         5.161361        -1.343373         1.264263
 H         3.670699        -2.125508         2.047786
 H         4.358131        -2.779455         0.358406
 H        -0.252359         0.254597         1.437009
 H        -0.616810         0.324231        -0.323405
 H        -0.079985        -1.247134         0.264970
 H         1.813614         0.110943        -2.110005
 H         1.727116         1.711861        -1.323492
 H         4.554052         0.782029        -0.714584
 H         2.925315         2.159975         1.677032
