19
Iteration:  3029
 C         4.389549        -1.664179         1.028383
 C         3.181546        -0.911233         0.609248
 O         1.866974        -1.464363         0.416979
 C         1.410920        -0.056488         0.042339
 C         0.073339         0.135642         0.582423
 C         2.041686         0.144684        -1.322970
 C         3.407722         0.137560        -0.614842
 C         2.779221         0.529042         0.726094
 O         2.929037         1.663170         1.628006
 H         5.175936        -0.910980         0.989381
 H         4.357664        -2.305483         1.953066
 H         4.644717        -2.331015         0.189211
 H         0.096529        -0.002568         1.708656
 H        -0.101934         1.256631         0.528047
 H        -0.787991        -0.384595         0.127378
 H         2.159626        -0.625726        -2.152721
 H         1.811539         1.159873        -1.687955
 H         4.416119         0.345141        -1.113503
 H         2.843771         1.287036         2.554570
