19
Iteration:  2354
 C         4.354314        -1.617614         1.044924
 C         3.210722        -0.815847         0.518805
 O         1.890074        -1.449797         0.456694
 C         1.379645        -0.003415         0.082275
 C        -0.085305         0.064965         0.489774
 C         2.029265         0.233299        -1.414830
 C         3.281300         0.128241        -0.658499
 C         2.708637         0.583854         0.782486
 O         3.227240         1.506512         1.778690
 H         4.373475        -1.857966         2.198209
 H         4.299073        -2.558527         0.352091
 H         5.423435        -1.333680         0.749788
 H        -0.101546        -0.703475         1.301339
 H        -0.419968         0.989131         0.940472
 H        -0.929228        -0.207782        -0.205440
 H         1.891616        -0.515656        -2.222053
 H         1.847951         1.309934        -1.768517
 H         4.173053         0.681950        -1.005526
 H         3.788781         0.860087         2.185125
