19
Iteration:   614
 C         4.365102        -1.598843         0.743127
 C         3.223701        -0.811994         0.470193
 O         2.042587        -1.403370         0.005413
 C         1.494041         0.036227        -0.094493
 C        -0.014064        -0.021315         0.257898
 C         2.328471         0.701912        -1.291817
 C         3.518732         0.630456        -0.324454
 C         2.595728         0.419061         1.008229
 O         2.559370         0.730869         2.327176
 H         4.291528        -2.235349         1.634863
 H         4.683714        -2.061736        -0.139822
 H         5.335238        -1.138659         1.045838
 H        -0.698989        -0.710281        -0.299215
 H         0.012203        -0.339498         1.315958
 H        -0.590155         0.950380         0.191542
 H         2.389317         0.147027        -2.212428
 H         2.020131         1.768121        -1.354694
 H         4.566533         0.946995        -0.576011
 H         2.973081         1.593521         2.285104
