19
Iteration:  4313charge 0 multiplicity 1
 C         4.314134        -1.761347         1.145851
 C         3.257660        -0.880765         0.473354
 O         2.062259        -1.419847        -0.023829
 C         1.479002        -0.061639         0.011909
 C         0.044151        -0.130239         0.517844
 C         2.047972         0.552997        -1.290923
 C         3.347895         0.414738        -0.506475
 C         2.731966         0.482432         0.828725
 O         2.777776         1.364660         1.946054
 H         4.153044        -2.891672         1.064274
 H         5.298057        -1.525498         0.866949
 H         4.406887        -1.380796         2.188556
 H        -0.722890        -0.423221        -0.201740
 H         0.072782        -0.901836         1.347273
 H        -0.091392         0.792799         1.078436
 H         1.860799        -0.108603        -2.146002
 H         1.845969         1.658876        -1.558451
 H         4.334288         0.735997        -0.898037
 H         3.488892         1.975497         1.759054
