19
Iteration:  3143
 C         4.209624        -1.600421         1.272509
 C         3.239749        -0.848130         0.477657
 O         1.909145        -1.461196         0.243086
 C         1.439143        -0.074252         0.022373
 C         0.104751         0.081277         0.617993
 C         1.979974         0.283252        -1.370055
 C         3.390302         0.134464        -0.714008
 C         2.774013         0.486641         0.783943
 O         3.056864         1.454731         1.751671
 H         5.218646        -1.053533         1.149014
 H         3.936867        -1.474652         2.362143
 H         4.389392        -2.707476         1.058082
 H         0.311701         0.097216         1.689414
 H        -0.329201         1.039210         0.431360
 H        -0.508533        -0.790037         0.356838
 H         1.643975        -0.281549        -2.267370
 H         1.801797         1.357425        -1.664564
 H         4.353182         0.458080        -1.017724
 H         2.844517         2.340772         1.322729
