19
Iteration:  1896
 C         4.469050        -1.665529         0.891626
 C         3.307060        -0.879040         0.466134
 O         1.998650        -1.421018         0.266251
 C         1.413370        -0.071862         0.101365
 C        -0.036872         0.197071         0.449051
 C         2.067631         0.293478        -1.267101
 C         3.392715         0.348398        -0.542743
 C         2.783974         0.487915         0.836006
 O         2.784302         1.271610         1.960054
 H         4.492456        -1.815584         1.967602
 H         4.241881        -2.584956         0.335336
 H         5.341097        -1.175633         0.438230
 H        -0.105449        -0.490337         1.356574
 H        -0.107502         1.210117         0.880335
 H        -0.660235        -0.239004        -0.347050
 H         1.931896        -0.530605        -1.962078
 H         1.779298         1.239196        -1.786277
 H         4.333983         0.617743        -1.035788
 H         2.229958         2.073089         1.757377
