19
Iteration:  4929charge 0 multiplicity 1
 C         4.629054        -1.490529         0.840007
 C         3.219371        -0.856018         0.424155
 O         1.927151        -1.420751         0.172918
 C         1.425411        -0.017976         0.090782
 C        -0.037522         0.171257         0.161128
 C         2.112114         0.498957        -1.187175
 C         3.362297         0.371658        -0.507970
 C         2.648252         0.378922         0.921716
 O         2.826443         1.024375         2.176709
 H         5.241480        -1.512256        -0.088019
 H         5.108238        -0.798703         1.588402
 H         4.399773        -2.431738         1.376696
 H        -0.642097        -0.705782        -0.085012
 H        -0.409364         0.364237         1.194532
 H        -0.289510         1.018293        -0.452018
 H         2.155688        -0.194989        -2.100677
 H         1.610506         1.404822        -1.557348
 H         4.411369         0.560551        -0.871567
 H         2.809523         0.398737         2.925975
