19
Iteration:  3848
 C         4.326727        -1.701020         0.907119
 C         3.246742        -0.849060         0.516535
 O         1.977837        -1.406712         0.015612
 C         1.434058        -0.055760         0.044948
 C        -0.064034        -0.163335         0.126210
 C         2.082634         0.662117        -1.119795
 C         3.418653         0.490305        -0.372444
 C         2.663201         0.403614         0.957751
 O         3.000757         1.193446         2.099872
 H         4.177935        -2.125657         1.967204
 H         4.405768        -2.601870         0.279085
 H         5.326891        -1.251986         0.993318
 H        -0.639374         0.478321        -0.465872
 H        -0.434291        -1.157081        -0.029460
 H        -0.402965        -0.038002         1.184216
 H         1.845938         0.214230        -2.133495
 H         1.914059         1.740835        -1.128774
 H         4.410788         1.032545        -0.632015
 H         3.210251         2.115604         1.827895
