19
Iteration:  1314
 C         4.451409        -1.723527         0.891969
 C         3.298478        -0.843037         0.439299
 O         2.043468        -1.397260         0.028144
 C         1.423292        -0.073038        -0.048583
 C         0.076455        -0.099765         0.430488
 C         2.199859         0.580271        -1.260270
 C         3.483812         0.587361        -0.304134
 C         2.634744         0.453539         0.876257
 O         2.495296         1.149613         2.074828
 H         3.950155        -2.765140         1.040921
 H         5.199519        -1.780226         0.102887
 H         5.035740        -1.528095         1.804207
 H        -0.112598        -1.146102         0.787079
 H         0.043533         0.491811         1.371522
 H        -0.602440         0.081626        -0.424350
 H         2.332437        -0.052294        -2.209495
 H         1.896651         1.585666        -1.408953
 H         4.418272         1.087799        -0.749126
 H         3.153111         1.846268         2.166626
