19
Iteration:  3487
 C         4.215533        -1.815009         1.040646
 C         3.217631        -0.825963         0.445184
 O         2.025736        -1.374849         0.094266
 C         1.411765        -0.014385         0.124079
 C        -0.066400        -0.170860         0.435894
 C         2.070492         0.507449        -1.216886
 C         3.452932         0.350608        -0.473795
 C         2.751833         0.506439         0.865351
 O         2.963852         1.419273         1.885521
 H         3.734805        -2.766048         1.377546
 H         4.843101        -2.234937         0.250486
 H         4.880492        -1.373504         1.815559
 H        -0.578621        -0.266368        -0.569181
 H        -0.161915        -1.157708         1.026438
 H        -0.484571         0.713589         0.963822
 H         1.890269         0.072777        -2.234932
 H         1.957614         1.610326        -1.315067
 H         4.522741         0.674172        -0.806966
 H         3.682382         2.006341         1.599989
