19
Iteration:  1132charge 0 multiplicity 1
 C         4.497164        -1.756721         0.831300
 C         3.366199        -0.854240         0.451268
 O         2.070995        -1.430587        -0.055045
 C         1.424971        -0.088856        -0.020107
 C        -0.019096         0.015976         0.285632
 C         2.183431         0.631817        -1.160092
 C         3.431424         0.533530        -0.348403
 C         2.644704         0.412618         0.978342
 O         2.579077         1.070638         2.183442
 H         4.137317        -2.579358         1.466824
 H         5.161475        -1.983291        -0.111038
 H         5.065403        -1.073236         1.547304
 H        -0.095812         0.459242         1.283425
 H        -0.556170         0.739933        -0.310692
 H        -0.535830        -0.930276         0.116959
 H         2.248321        -0.017768        -2.059230
 H         1.770844         1.711685        -1.348898
 H         4.368490         1.089434        -0.456566
 H         2.451245         2.040744         2.034090
