19
Iteration:  4940charge 0 multiplicity 1
 C         4.579605        -1.520522         0.841465
 C         3.318495        -0.833634         0.401785
 O         1.915397        -1.455612         0.198679
 C         1.400450        -0.025062         0.006592
 C        -0.098736         0.181987         0.172689
 C         2.026180         0.495667        -1.233663
 C         3.454656         0.458561        -0.482141
 C         2.694818         0.375783         1.021324
 O         2.801717         1.013288         2.148877
 H         5.413455        -1.994245         0.282578
 H         5.051576        -0.693057         1.447989
 H         4.460483        -2.365247         1.569110
 H        -0.510232        -0.716799        -0.298876
 H        -0.297558         0.368623         1.259730
 H        -0.484060         0.986024        -0.416307
 H         1.754144        -0.286095        -2.055048
 H         1.796119         1.563075        -1.457132
 H         4.427838         0.702904        -1.015103
 H         3.166388         0.355660         2.820779
