19
Iteration:   785charge 0 multiplicity 1
 C         4.534413        -1.498478         0.920723
 C         3.321110        -0.857172         0.381127
 O         2.082953        -1.441816        -0.162849
 C         1.423683        -0.093453         0.012459
 C        -0.031764         0.049652         0.243960
 C         2.123517         0.729296        -1.141384
 C         3.453395         0.441004        -0.307556
 C         2.634029         0.290264         0.948887
 O         2.564500         0.927338         2.243692
 H         4.441457        -1.946746         1.939782
 H         5.133405        -2.373224         0.400856
 H         5.280110        -0.626989         1.002910
 H        -0.183597         0.999216         0.902420
 H        -0.593081         0.245467        -0.760276
 H        -0.539901        -0.877167         0.716772
 H         2.106294         0.119785        -2.170404
 H         1.631497         1.745372        -1.354858
 H         4.408040         0.976901        -0.411664
 H         3.211667         1.657565         2.171542
