19
Iteration:  1948
 C         4.436103        -1.549238         1.032856
 C         3.203476        -0.823628         0.439867
 O         1.966739        -1.451740         0.238386
 C         1.346421        -0.079338         0.050107
 C        -0.134949         0.021874         0.437436
 C         2.009110         0.398889        -1.289044
 C         3.438891         0.367224        -0.537734
 C         2.681851         0.451550         0.809914
 O         3.101001         1.227691         1.952653
 H         3.909565        -2.442396         1.358095
 H         5.194063        -1.879466         0.237744
 H         4.752409        -1.011761         1.909711
 H        -0.188631         0.294736         1.520080
 H        -0.457915         0.842358        -0.294810
 H        -0.524335        -1.000822         0.167818
 H         1.873544        -0.208591        -2.208925
 H         1.611833         1.442845        -1.414953
 H         4.461956         0.378678        -0.892931
 H         3.281743         2.156892         1.674204
