19
Iteration:  1992
 C         4.233496        -1.711810         1.127315
 C         3.271327        -0.795734         0.472895
 O         1.989439        -1.456459         0.182341
 C         1.432227        -0.078698         0.081312
 C        -0.077391        -0.103487         0.510542
 C         2.016354         0.497690        -1.277977
 C         3.350105         0.349200        -0.555754
 C         2.778255         0.537559         0.782583
 O         3.107626         1.316128         1.819184
 H         4.222804        -2.679565         0.646605
 H         5.203895        -1.172425         0.803939
 H         3.943868        -1.687687         2.198423
 H        -0.195950         0.073503         1.621580
 H        -0.788986         0.667812         0.045399
 H        -0.290152        -1.184194         0.302011
 H         1.821008        -0.003472        -2.265425
 H         1.801935         1.602895        -1.386551
 H         4.380437         0.450303        -0.914426
 H         3.070210         2.279971         1.659108
