19
Iteration:  4253charge 0 multiplicity 1
 C         4.537595        -1.696603         0.827047
 C         3.342739        -0.757652         0.592574
 O         1.897570        -1.488491         0.292364
 C         1.415525        -0.112830         0.109359
 C         0.028649         0.123253         0.141723
 C         2.064489         0.371965        -1.236225
 C         3.351416         0.437078        -0.540950
 C         2.691872         0.502410         0.880326
 O         2.892728         1.238592         2.098853
 H         4.316024        -2.640782         0.401524
 H         5.439084        -1.299699         0.238520
 H         4.633373        -1.847622         1.866584
 H        -0.543569        -0.868065        -0.052433
 H        -0.176383         0.268137         1.209607
 H        -0.464192         0.823237        -0.632137
 H         1.740840        -0.442236        -1.895446
 H         1.646709         1.277952        -1.554295
 H         4.297557         1.001540        -0.841698
 H         2.050027         1.753599         2.158659
