19
Iteration:  1950charge 0 multiplicity 1
 C         4.434713        -1.548380         1.045492
 C         3.192899        -0.835972         0.438182
 O         1.952467        -1.446059         0.218412
 C         1.352259        -0.073497         0.064612
 C        -0.145209         0.015139         0.441419
 C         2.020819         0.406856        -1.303661
 C         3.428052         0.360258        -0.525267
 C         2.696775         0.456472         0.802135
 O         3.109785         1.234352         1.950038
 H         4.007141        -2.515800         1.361272
 H         5.180395        -1.814363         0.268222
 H         4.782989        -1.021438         1.950990
 H        -0.182082         0.244137         1.578792
 H        -0.559159         0.776202        -0.316605
 H        -0.477230        -1.031641         0.189385
 H         1.845717        -0.207342        -2.176973
 H         1.679076         1.470475        -1.442084
 H         4.464751         0.373684        -0.907358
 H         3.266856         2.179574         1.676479
