19
Iteration:  1996charge 0 multiplicity 1
 C         4.232575        -1.725738         1.104391
 C         3.267723        -0.793033         0.490674
 O         2.015224        -1.484116         0.202431
 C         1.416651        -0.096188         0.080847
 C        -0.085624        -0.094382         0.516724
 C         2.016012         0.498654        -1.268041
 C         3.343795         0.371624        -0.590291
 C         2.804171         0.547070         0.762437
 O         3.087576         1.329898         1.831284
 H         4.202918        -2.714454         0.616578
 H         5.159194        -1.239766         1.008620
 H         3.844619        -1.752479         2.103885
 H        -0.131519         0.088710         1.626816
 H        -0.604879         0.710266         0.001242
 H        -0.473687        -1.112558         0.266611
 H         1.968363        -0.007258        -2.210196
 H         1.754885         1.553872        -1.358475
 H         4.330151         0.589000        -0.998787
 H         3.136086         2.293926         1.669804
