19
Iteration:  2765charge 0 multiplicity 1
 C         4.409809        -1.568080         1.131117
 C         3.292665        -0.808421         0.477236
 O         1.923671        -1.472491         0.417943
 C         1.434398        -0.192527         0.171507
 C        -0.089419         0.139952         0.585624
 C         1.929527         0.172528        -1.331428
 C         3.294009         0.307816        -0.695511
 C         2.759824         0.599837         0.649860
 O         3.117183         1.419038         1.655430
 H         5.401700        -1.457589         0.631565
 H         4.637271        -1.185883         2.213237
 H         4.256061        -2.661557         1.193695
 H        -0.275359        -0.534689         1.395181
 H        -0.095919         1.126948         0.952009
 H        -0.570953        -0.094458        -0.321116
 H         1.949723        -0.510339        -2.194538
 H         1.505455         1.151310        -1.684323
 H         4.257326         0.694347        -1.180594
 H         2.680977         0.959734         2.382420
