19
Iteration:    38charge 0 multiplicity 1
 C         4.243843        -1.930305         0.665836
 C         3.287150        -0.834232         0.465311
 O         2.081890        -1.336383        -0.077569
 C         1.544535         0.049041        -0.101704
 C         0.112542        -0.063668         0.371307
 C         2.397113         0.797014        -1.218559
 C         3.496225         0.616952        -0.229441
 C         2.615187         0.422378         0.974373
 O         2.433851         1.025219         2.232382
 H         3.832335        -2.707851         1.401185
 H         4.630717        -2.355064        -0.296351
 H         5.135290        -1.414485         1.076551
 H         0.149831         0.250623         1.533143
 H        -0.617443         0.530160        -0.250823
 H        -0.186616        -1.140609         0.293248
 H         2.443013         0.133863        -2.291148
 H         2.054608         1.845763        -1.244826
 H         4.354570         1.327501        -0.256652
 H         2.351770         0.269839         2.860733
