19
Iteration:  3333charge 0 multiplicity 1
 C         4.378955        -1.472978         1.216941
 C         3.249465        -0.970741         0.396525
 O         1.944402        -1.539371         0.278548
 C         1.392536        -0.152915         0.025229
 C        -0.010227         0.203187         0.495533
 C         2.043434         0.418330        -1.315579
 C         3.356106         0.207271        -0.582104
 C         2.685114         0.466398         0.778712
 O         3.035745         1.316988         1.807743
 H         5.301213        -1.487863         0.673664
 H         4.282928        -1.093845         2.237953
 H         4.108085        -2.503152         1.356241
 H        -0.026417         0.311062         1.528981
 H        -0.376725         1.054352        -0.068530
 H        -0.538944        -0.670962         0.369081
 H         1.790497        -0.177168        -2.192820
 H         1.982493         1.478238        -1.537067
 H         4.299003         0.509333        -0.920617
 H         3.118344         2.183946         1.415614
