19
Iteration:  2579
 C         4.449243        -1.535137         1.031341
 C         3.279628        -0.828335         0.443566
 O         1.941491        -1.487554         0.448804
 C         1.434963        -0.124619         0.221572
 C        -0.058885         0.290974         0.436522
 C         1.855041         0.098914        -1.242640
 C         3.340709         0.246804        -0.695918
 C         2.803798         0.531689         0.724760
 O         3.066664         1.397277         1.680931
 H         4.427804        -1.704142         2.128433
 H         4.554262        -2.608353         0.573949
 H         5.394911        -0.964803         0.930471
 H        -0.364914         0.013197         1.454189
 H        -0.320286         1.347302         0.564682
 H        -0.874523        -0.151251        -0.140475
 H         1.513702        -0.747773        -1.884201
 H         1.471407         1.089235        -1.632359
 H         4.247726         0.492972        -1.204712
 H         3.337201         0.958189         2.527534
