19
Iteration:  1699charge 0 multiplicity 1
 C         4.436406        -1.659580         0.978355
 C         3.240852        -0.851529         0.514256
 O         2.018526        -1.418202         0.110925
 C         1.511625        -0.073832         0.070517
 C         0.085646        -0.039582         0.508118
 C         2.094427         0.422644        -1.295330
 C         3.415975         0.256206        -0.552344
 C         2.747365         0.487394         0.875418
 O         2.706420         1.389066         1.907867
 H         4.388259        -2.630252         0.433410
 H         5.483240        -1.152401         0.683883
 H         4.284890        -1.818636         2.083071
 H        -0.718865        -0.055512        -0.276719
 H        -0.171962        -0.822531         1.316319
 H        -0.096530         0.867210         1.184521
 H         1.628947        -0.068188        -2.211898
 H         1.767509         1.539296        -1.464400
 H         4.369905         0.706299        -0.817917
 H         1.849668         1.839965         2.005902
