19
Iteration:    71charge 0 multiplicity 1
 C         4.379167        -1.879620         0.728324
 C         3.313662        -0.912499         0.383629
 O         2.140681        -1.422711        -0.226939
 C         1.522029        -0.061394         0.020724
 C         0.009808         0.135812         0.269805
 C         2.232441         0.839093        -0.995323
 C         3.503336         0.554387        -0.246951
 C         2.651134         0.267017         1.049031
 O         2.471465         1.080731         2.157231
 H         4.080695        -2.567753         1.578759
 H         4.824940        -2.512493        -0.078130
 H         5.135578        -1.173431         1.213998
 H        -0.091004         1.135662         0.907048
 H        -0.486229         0.307853        -0.728304
 H        -0.405758        -0.776736         0.783999
 H         2.083836         0.562498        -2.185870
 H         1.898431         1.889332        -0.917057
 H         4.385965         1.264697        -0.382693
 H         2.204415         0.462300         2.835497
