19
Iteration:  2727
 C         4.479189        -1.556446         0.856827
 C         3.189460        -0.827074         0.608925
 O         1.871611        -1.441827         0.432763
 C         1.345875        -0.120032         0.192865
 C        -0.096563         0.058101         0.429520
 C         2.026742         0.124362        -1.270821
 C         3.342927         0.128777        -0.576422
 C         2.777437         0.595767         0.742317
 O         3.174570         1.602523         1.711546
 H         5.267234        -0.992413         0.386678
 H         4.602192        -1.638860         1.885324
 H         4.436135        -2.595191         0.569868
 H        -0.640354        -0.505170         1.244038
 H        -0.547648         1.084346         0.651364
 H        -0.705476        -0.249737        -0.490105
 H         1.870670        -0.721310        -1.968357
 H         1.583300         1.049296        -1.588448
 H         4.312881         0.337900        -0.966811
 H         3.074622         1.270736         2.599868
