19
Iteration:  1269charge 0 multiplicity 1
 C         4.541333        -1.586704         0.779915
 C         3.319035        -0.868812         0.445405
 O         2.051789        -1.531903        -0.012435
 C         1.442318        -0.145029         0.057103
 C        -0.036533         0.032624         0.185978
 C         2.154256         0.646070        -1.084854
 C         3.415537         0.446773        -0.327150
 C         2.596327         0.375355         0.986183
 O         2.611077         1.154709         2.148340
 H         4.550608        -2.120381         1.791905
 H         4.897140        -2.326408         0.136291
 H         5.444274        -0.994319         0.865007
 H        -0.436600        -0.587160         0.980329
 H        -0.093082         1.064168         0.585646
 H        -0.515995        -0.067473        -0.810646
 H         2.033587         0.157567        -2.106867
 H         1.856435         1.675242        -1.055132
 H         4.459888         0.771577        -0.521256
 H         2.766127         2.084726         1.884100
