19
Iteration:  1987
 C         4.259186        -1.655465         1.143551
 C         3.240275        -0.838415         0.436899
 O         1.948354        -1.395341         0.160073
 C         1.424344        -0.042749         0.078745
 C        -0.048466        -0.111865         0.501511
 C         2.015907         0.491055        -1.291293
 C         3.392701         0.316405        -0.539110
 C         2.722145         0.514221         0.814003
 O         3.139814         1.306607         1.827121
 H         4.230055        -2.692047         0.714985
 H         5.216120        -1.283138         0.795292
 H         4.243632        -1.675331         2.266080
 H        -0.219372        -0.004876         1.550143
 H        -0.870500         0.417830         0.077034
 H        -0.175001        -1.170482         0.352097
 H         1.626993        -0.012500        -2.200063
 H         1.856493         1.546788        -1.395288
 H         4.437015         0.422915        -0.815055
 H         2.944388         2.235569         1.552526
