19
Iteration:   129
 C         4.313171        -1.695404         0.767269
 C         3.210081        -0.775721         0.451647
 O         1.925569        -1.346999        -0.039331
 C         1.430489         0.037916        -0.102982
 C        -0.003732        -0.084235        -0.032830
 C         2.300753         0.828127        -1.175792
 C         3.439551         0.624886        -0.159968
 C         2.635376         0.404169         1.067058
 O         2.894445         0.804984         2.347966
 H         3.938168        -2.544761         1.320691
 H         4.642535        -2.101006        -0.200448
 H         5.222606        -1.255641         1.317848
 H        -0.592399         0.717395        -0.434358
 H        -0.394082        -1.003758        -0.542721
 H        -0.410731        -0.114131         1.015800
 H         2.286956         0.412747        -2.223327
 H         1.881987         1.967140        -1.146480
 H         4.419444         0.973088        -0.282831
 H         2.743480        -0.013913         2.902407
