19
Iteration:  4611
 C         4.446052        -1.701873         0.746175
 C         3.258362        -0.819303         0.566429
 O         2.023686        -1.462192         0.243423
 C         1.414913        -0.179755         0.018853
 C        -0.061884        -0.035638         0.217229
 C         2.146563         0.487826        -1.250106
 C         3.334856         0.429569        -0.360581
 C         2.667095         0.518549         0.935144
 O         2.845613         1.364388         2.029787
 H         4.897189        -2.027079        -0.184609
 H         5.295492        -1.203088         1.341490
 H         4.067602        -2.635842         1.051455
 H        -0.513936        -0.218356        -0.786213
 H        -0.505135        -0.545187         1.038206
 H        -0.228488         1.124072         0.331546
 H         2.246229         0.002803        -2.209339
 H         1.734276         1.478551        -1.332315
 H         4.401150         0.839372        -0.502044
 H         2.988005         0.801384         2.840746
