19
Iteration:  4037
 C         4.464743        -1.643101         0.923076
 C         3.251339        -0.830519         0.526296
 O         1.975704        -1.450193         0.139655
 C         1.452287        -0.026400         0.159376
 C        -0.136161         0.009714         0.202843
 C         2.058614         0.412738        -1.216411
 C         3.395484         0.433037        -0.486156
 C         2.699262         0.484192         0.869630
 O         2.946753         1.172177         2.074512
 H         4.240523        -2.670216         0.592598
 H         5.430713        -1.375186         0.304868
 H         4.676797        -1.655030         2.022130
 H        -0.274054         0.566037         1.141119
 H        -0.486990         0.651831        -0.588084
 H        -0.622506        -0.906513         0.275510
 H         1.906919        -0.216396        -2.137634
 H         1.863103         1.481263        -1.471812
 H         4.344977         0.843710        -0.809098
 H         2.702059         2.086062         1.939249
