19
Iteration:  2386
 C         4.455163        -1.558347         0.992090
 C         3.263463        -0.883576         0.449893
 O         1.873408        -1.504270         0.486337
 C         1.422350        -0.015168         0.276314
 C        -0.023264         0.266670         0.305840
 C         1.944092         0.154567        -1.185067
 C         3.274853         0.291708        -0.702254
 C         2.839835         0.464537         0.736170
 O         3.067619         1.379797         1.751493
 H         4.536831        -1.547788         2.133008
 H         4.284800        -2.627434         0.629616
 H         5.269233        -1.052053         0.462646
 H        -0.414436        -0.153229         1.271915
 H        -0.348113         1.311490         0.310525
 H        -0.678119        -0.185895        -0.487412
 H         1.718580        -0.685383        -1.845243
 H         1.409173         1.078042        -1.559003
 H         4.174218         0.588475        -1.257670
 H         3.642774         1.063318         2.494002
