19
Iteration:  4680charge 0 multiplicity 1
 C         4.292823        -1.778491         1.000745
 C         3.244495        -0.881534         0.416801
 O         2.071132        -1.417366        -0.053549
 C         1.438801        -0.135352        -0.013281
 C         0.021016        -0.184151         0.520448
 C         2.166888         0.689921        -1.179422
 C         3.424514         0.521879        -0.383534
 C         2.705425         0.471475         0.856887
 O         2.833979         1.336897         1.911303
 H         4.997932        -2.352965         0.394658
 H         4.820310        -1.251871         1.802263
 H         3.607691        -2.608225         1.225947
 H        -0.530557        -1.165652         0.307044
 H        -0.007057        -0.015082         1.695481
 H        -0.577561         0.564577         0.018323
 H         2.167970         0.536083        -2.293834
 H         1.862485         1.740119        -0.942648
 H         4.360253         0.907831        -0.535118
 H         2.063801         0.934547         2.394485
