19
Iteration:  2793charge 0 multiplicity 1
 C         4.317647        -1.590371         1.200224
 C         3.340666        -0.833459         0.399766
 O         2.051159        -1.522476         0.284717
 C         1.480274        -0.060056         0.144356
 C         0.075114         0.134705         0.637833
 C         1.812656         0.295055        -1.286551
 C         3.343435         0.106750        -0.771291
 C         2.719733         0.483677         0.757364
 O         2.939982         1.521220         1.634772
 H         5.357597        -1.578714         0.926607
 H         4.285871        -1.129104         2.152823
 H         4.034569        -2.586453         1.489792
 H         0.205224        -0.455962         1.556658
 H        -0.011300         1.243984         0.934525
 H        -0.587554        -0.376079        -0.128170
 H         1.479815        -0.398634        -2.071325
 H         1.528959         1.319050        -1.505638
 H         4.132621         0.748297        -1.097208
 H         3.409952         1.240906         2.460415
