19
Iteration:  1451
 C         4.375979        -1.730675         0.923281
 C         3.357175        -0.693105         0.424147
 O         2.139147        -1.453187         0.180234
 C         1.465608        -0.210147         0.068089
 C         0.030224        -0.040846         0.202571
 C         2.045580         0.500887        -1.203945
 C         3.349293         0.563740        -0.500191
 C         2.628546         0.546301         0.900009
 O         2.782876         1.084353         2.108147
 H         5.379132        -1.331509         1.006748
 H         3.950287        -1.903748         1.938769
 H         4.318245        -2.563333         0.234536
 H        -0.391474        -0.158952         1.233824
 H        -0.248663         0.981832        -0.132014
 H        -0.627762        -0.783365        -0.309496
 H         1.944671         0.112806        -2.201982
 H         1.672688         1.542331        -1.185146
 H         4.318122         1.135387        -0.653080
 H         2.676764         2.065850         2.121154
