19
Iteration:  2059
 C         4.536575        -1.650140         0.777637
 C         3.226257        -0.878527         0.517437
 O         1.821133        -1.474926         0.368597
 C         1.396636        -0.105428         0.046346
 C         0.012290         0.271971         0.512501
 C         2.101105         0.203841        -1.285659
 C         3.413827         0.152951        -0.520637
 C         2.749617         0.539646         0.822859
 O         2.853844         1.405898         1.859539
 H         5.449912        -1.515921         0.144211
 H         4.890510        -1.243957         1.797449
 H         4.566430        -2.730212         1.050835
 H        -0.177359        -0.505896         1.361126
 H        -0.125641         1.174400         1.149887
 H        -0.895336         0.172312        -0.149577
 H         2.054218        -0.213156        -2.301031
 H         1.801539         1.303853        -1.393025
 H         4.421313         0.377449        -0.856242
 H         2.736471         2.307898         1.532449
