19
Iteration:    28charge 0 multiplicity 1
 C         4.260596        -1.874687         0.713264
 C         3.255018        -0.836500         0.405279
 O         2.096505        -1.292774        -0.154826
 C         1.489268         0.099702        -0.036749
 C         0.075529        -0.101522         0.320490
 C         2.381306         0.688848        -1.189980
 C         3.510262         0.579192        -0.263346
 C         2.669473         0.456467         1.008039
 O         2.467792         1.036097         2.304730
 H         3.953185        -2.768512         1.322422
 H         4.460280        -2.309870        -0.293140
 H         5.180759        -1.446940         1.202383
 H        -0.106800        -0.056147         1.475249
 H        -0.658683         0.688144         0.019805
 H        -0.294551        -1.127950         0.042275
 H         2.467465         0.084574        -2.262821
 H         2.306496         1.793659        -1.511933
 H         4.428166         1.231604        -0.385525
 H         2.298073         0.330622         2.938278
