19
Iteration:  3033charge 0 multiplicity 1
 C         4.408416        -1.680985         0.999755
 C         3.171418        -0.891163         0.617811
 O         1.840074        -1.464354         0.448687
 C         1.411255        -0.068129         0.046550
 C         0.046745         0.150039         0.560310
 C         2.060338         0.127332        -1.307567
 C         3.448909         0.147006        -0.621314
 C         2.757307         0.550363         0.707952
 O         2.925289         1.666790         1.650668
 H         5.314662        -0.958394         0.838101
 H         4.461074        -2.297293         1.936669
 H         4.601869        -2.433392         0.131562
 H         0.074902        -0.029940         1.606985
 H        -0.216662         1.209129         0.323386
 H        -0.734925        -0.472681         0.072052
 H         2.011627        -0.718220        -2.068875
 H         1.789980         1.187862        -1.563494
 H         4.448994         0.455382        -0.983808
 H         3.107758         1.256668         2.502680
