19
Iteration:  3754
 C         4.481498        -1.649554         0.823153
 C         3.259889        -0.827429         0.433075
 O         1.985268        -1.441010         0.101791
 C         1.504878        -0.016227         0.066673
 C         0.014867         0.199337         0.404813
 C         2.121989         0.515590        -1.237448
 C         3.443949         0.394700        -0.478937
 C         2.745955         0.490574         0.863707
 O         2.648139         0.942261         2.128041
 H         4.213122        -2.625863         0.477459
 H         5.475552        -1.272596         0.463848
 H         4.510956        -1.677246         1.928705
 H        -0.425513         1.030295        -0.279585
 H        -0.550904        -0.753398         0.345612
 H        -0.067195         0.365868         1.488326
 H         1.870497        -0.154786        -2.079984
 H         2.120273         1.583878        -1.536963
 H         4.461706         0.861543        -0.554136
 H         2.144272         1.766101         2.001632
