19
Iteration:  1933
 C         4.343446        -1.602881         0.974629
 C         3.295751        -0.759333         0.425349
 O         2.012400        -1.492382         0.316756
 C         1.431277        -0.209089         0.086338
 C        -0.020095         0.129540         0.340473
 C         1.999903         0.367718        -1.236164
 C         3.302402         0.383898        -0.595188
 C         2.722479         0.519435         0.824466
 O         3.000121         1.185940         1.967650
 H         4.013748        -2.426750         1.643677
 H         5.019353        -2.033617         0.252541
 H         5.044239        -1.014266         1.598123
 H        -0.131272         0.214138         1.398142
 H        -0.343680         1.017165        -0.126934
 H        -0.814605        -0.523515         0.045043
 H         1.824812        -0.323227        -2.103984
 H         1.669521         1.369147        -1.460499
 H         4.145374         0.983537        -0.936351
 H         3.240035         2.117769         1.735840
