19
Iteration:  3820charge 0 multiplicity 1
 C         4.228865        -1.753918         1.063630
 C         3.355888        -0.881494         0.369899
 O         2.012504        -1.386663        -0.117743
 C         1.424887        -0.077585         0.002330
 C        -0.061178        -0.207047         0.429133
 C         2.152717         0.780550        -1.185559
 C         3.454422         0.497899        -0.433079
 C         2.726942         0.410650         0.901181
 O         2.862083         1.200238         2.068506
 H         3.588644        -2.339621         1.664046
 H         4.945687        -2.471211         0.594467
 H         4.887696        -1.340731         1.816700
 H        -0.878883         0.332008        -0.245334
 H        -0.533492        -1.220240         0.475470
 H        -0.205965         0.102820         1.478063
 H         1.991953         0.356196        -2.187299
 H         1.931415         1.868967        -1.211861
 H         4.376420         0.817827        -0.833593
 H         3.282374         2.087018         1.886890
