19
Iteration:  1026
 C         4.416833        -1.608351         1.081691
 C         3.258503        -0.860141         0.403621
 O         2.090615        -1.448158        -0.150569
 C         1.443296        -0.080587        -0.055131
 C        -0.048903        -0.193554         0.240460
 C         2.124206         0.779345        -1.087175
 C         3.358659         0.503615        -0.310931
 C         2.573957         0.305186         0.973992
 O         2.829046         1.112282         2.070109
 H         4.280633        -2.045973         2.045806
 H         4.797855        -2.510715         0.477858
 H         5.343960        -0.964950         1.135545
 H        -0.491594        -1.088066         0.783481
 H        -0.147476         0.817088         0.737870
 H        -0.565908        -0.063269        -0.771119
 H         2.002361         0.568386        -2.152609
 H         1.880670         1.905094        -0.969333
 H         4.331455         1.003264        -0.367506
 H         3.097228         2.033381         1.833591
