19
Iteration:  1491charge 0 multiplicity 1
 C         4.424196        -1.648770         0.881289
 C         3.254764        -0.923874         0.388053
 O         1.892018        -1.365349        -0.058502
 C         1.447174         0.004375         0.042342
 C         0.027099        -0.156923         0.539272
 C         2.323091         0.513417        -1.213182
 C         3.487854         0.429243        -0.307633
 C         2.623912         0.459677         0.865619
 O         2.671838         1.266347         2.006327
 H         5.009803        -1.128925         1.629237
 H         4.244201        -2.642836         1.470403
 H         5.236656        -1.897367         0.119348
 H         0.039939        -0.117637         1.672430
 H        -0.672220         0.550438         0.030237
 H        -0.196190        -1.263333         0.384341
 H         2.340164        -0.054231        -2.172970
 H         1.972695         1.573126        -1.452716
 H         4.469539         0.786617        -0.518626
 H         2.232667         2.094686         1.747853
