19
Iteration:  4981charge 0 multiplicity 1
 C         4.257998        -1.671229         1.016988
 C         3.299768        -0.788298         0.408500
 O         2.046292        -1.436484        -0.026756
 C         1.487182        -0.064939        -0.037069
 C         0.028392        -0.072288         0.406790
 C         2.068901         0.545071        -1.251752
 C         3.412828         0.552741        -0.412712
 C         2.686347         0.436499         0.870958
 O         2.819032         1.184360         2.098976
 H         4.100001        -2.589725         0.447964
 H         5.319531        -1.361654         0.780202
 H         4.075597        -1.928743         2.041050
 H        -0.597327        -0.667476        -0.323040
 H         0.112712        -0.524776         1.387346
 H        -0.517558         0.954451         0.347419
 H         1.840137         0.061815        -2.256219
 H         1.853958         1.657783        -1.341845
 H         4.490056         0.912276        -0.579907
 H         3.345872         0.714073         2.744395
