19
Iteration:  1278charge 0 multiplicity 1
 C         4.569682        -1.570934         0.795637
 C         3.228843        -0.887730         0.408211
 O         2.099520        -1.539795        -0.061095
 C         1.431191        -0.086668        -0.034220
 C        -0.055912         0.009158         0.290007
 C         2.218144         0.565999        -1.093135
 C         3.421681         0.415789        -0.279120
 C         2.619220         0.370481         1.029403
 O         2.585086         1.206898         2.151095
 H         4.417630        -2.255648         1.636908
 H         4.814660        -2.219430        -0.051408
 H         5.227181        -0.732415         0.968926
 H        -0.555193        -0.663889         0.939694
 H        -0.196220         1.004773         0.653214
 H        -0.628080         0.201486        -0.579118
 H         2.199654         0.192251        -2.135709
 H         1.925437         1.636298        -1.161697
 H         4.412596         0.758145        -0.513385
 H         2.992748         2.035935         1.836400
