19
Iteration:    93
 C         4.514397        -1.745838         0.825560
 C         3.297715        -0.907715         0.354851
 O         2.002295        -1.377032        -0.294393
 C         1.471501        -0.016770         0.003489
 C        -0.053929         0.104645         0.130333
 C         2.206639         0.822484        -1.006255
 C         3.420885         0.492878        -0.154569
 C         2.603670         0.227966         1.084166
 O         2.703354         1.025005         2.232640
 H         4.197943        -2.538821         1.554770
 H         4.826968        -2.309250        -0.088541
 H         5.405268        -1.159184         1.232142
 H        -0.115794         1.281300         0.154231
 H        -0.477383        -0.282516        -0.835182
 H        -0.420486        -0.446028         1.046566
 H         2.052430         0.502286        -2.166073
 H         1.944987         1.878791        -0.915376
 H         4.530807         0.789236        -0.236308
 H         1.997642         0.620260         2.817054
