19
Iteration:  1899
 C         4.465446        -1.688988         0.895115
 C         3.307972        -0.844389         0.475346
 O         2.002206        -1.424577         0.261382
 C         1.435367        -0.088562         0.103317
 C        -0.050964         0.208539         0.436865
 C         2.049653         0.306915        -1.267417
 C         3.365118         0.371086        -0.556582
 C         2.806718         0.471963         0.847233
 O         2.790023         1.259067         1.959568
 H         4.481581        -1.824179         2.006519
 H         4.347581        -2.595819         0.347436
 H         5.366435        -1.113892         0.544097
 H        -0.085245        -0.423333         1.319818
 H        -0.145130         1.207236         0.755137
 H        -0.651951        -0.219824        -0.321895
 H         1.895534        -0.629663        -1.846590
 H         1.704268         1.193588        -1.801879
 H         4.339049         0.597063        -1.050908
 H         2.287940         2.057027         1.743005
