19
Iteration:   428
 C         4.476145        -1.656654         0.693623
 C         3.242568        -0.926657         0.420947
 O         2.065075        -1.373034        -0.264605
 C         1.485808         0.039240        -0.006552
 C        -0.031853         0.100104         0.312616
 C         2.320920         0.815883        -1.104341
 C         3.517336         0.468508        -0.266783
 C         2.551634         0.206711         1.098885
 O         2.476666         0.853208         2.301099
 H         4.251513        -2.177718         1.672430
 H         4.801730        -2.181622        -0.224748
 H         5.279374        -0.852429         0.895153
 H        -0.277522         1.152165        -0.022521
 H        -0.519457        -0.636737        -0.407223
 H        -0.150376        -0.032825         1.384553
 H         2.271959         0.388252        -2.138286
 H         2.114082         1.978582        -1.144464
 H         4.487032         0.925347        -0.202017
 H         3.074234         1.608609         2.253572
