19
Iteration:  4627charge 0 multiplicity 1
 C         4.356849        -1.818104         0.778216
 C         3.288742        -0.831962         0.498661
 O         2.028984        -1.478287         0.205740
 C         1.441278        -0.116541         0.055012
 C        -0.114262        -0.117721         0.239073
 C         2.176355         0.548644        -1.154120
 C         3.497910         0.563949        -0.399101
 C         2.670061         0.479942         0.967361
 O         2.824855         1.429182         1.943792
 H         4.998335        -1.945375        -0.134192
 H         5.059238        -1.547833         1.566296
 H         3.816831        -2.787263         1.091519
 H        -0.725636        -0.767488        -0.411203
 H        -0.263090        -0.659296         1.256632
 H        -0.551607         0.840115         0.243030
 H         1.935375         0.094908        -2.172228
 H         1.858305         1.628665        -1.398944
 H         4.440752         0.941797        -0.633475
 H         2.736891         0.940150         2.810550
