19
Iteration:  4914charge 0 multiplicity 1
 C         4.479704        -1.486617         0.783708
 C         3.216616        -0.842378         0.491273
 O         1.927974        -1.501009         0.116395
 C         1.433338        -0.105855         0.076428
 C        -0.060749         0.156579         0.269509
 C         2.120172         0.444937        -1.267211
 C         3.442995         0.398641        -0.376474
 C         2.713391         0.499798         0.902071
 O         2.850813         1.076958         2.147346
 H         5.230697        -1.397451        -0.003386
 H         5.016778        -0.932187         1.545652
 H         4.518093        -2.520813         1.025890
 H        -0.561591        -0.704968        -0.200432
 H        -0.344283         0.346764         1.272646
 H        -0.336106         0.967551        -0.514272
 H         1.858565        -0.127319        -2.184813
 H         2.040845         1.572899        -1.393062
 H         4.389880         0.847252        -0.566178
 H         2.343844         0.385494         2.683789
