19
Iteration:  2290
 C         4.351807        -1.869845         1.075910
 C         3.288333        -0.901821         0.523286
 O         2.006774        -1.455264         0.342516
 C         1.427879        -0.140230         0.163623
 C         0.118067         0.183001         0.632866
 C         1.906275         0.435368        -1.244307
 C         3.324327         0.186154        -0.612710
 C         2.773676         0.453786         0.733034
 O         2.977569         1.538881         1.552688
 H         3.780388        -2.651736         1.621952
 H         4.756913        -2.274219         0.162132
 H         5.043622        -1.250808         1.662156
 H         0.199067         0.384472         1.680702
 H        -0.067110         1.153051         0.210157
 H        -0.687156        -0.474634         0.322702
 H         1.671134        -0.129887        -2.174466
 H         1.640650         1.519492        -1.397175
 H         4.257337         0.677205        -0.954435
 H         2.147213         1.989867         1.706167
