19
Iteration:  1805
 C         4.351620        -1.668341         1.070927
 C         3.230438        -0.866407         0.498303
 O         2.027257        -1.481557         0.216439
 C         1.456947        -0.159199         0.079154
 C        -0.046191        -0.048160         0.413787
 C         1.932840         0.493029        -1.254879
 C         3.410375         0.433411        -0.591801
 C         2.751396         0.535477         0.782678
 O         2.914554         1.350208         1.911157
 H         5.270230        -1.206800         0.883899
 H         4.211369        -1.923848         2.134085
 H         4.451811        -2.561491         0.481100
 H        -0.312681        -1.080932         0.263040
 H        -0.131240         0.062760         1.494877
 H        -0.584861         0.567356        -0.293450
 H         1.908474        -0.064152        -2.165081
 H         1.651254         1.530466        -1.351995
 H         4.348812         0.900416        -0.931378
 H         3.830660         1.681834         1.895394
