19
Iteration:  2137
 C         4.204947        -1.784140         1.172289
 C         3.244279        -0.823917         0.463461
 O         2.007395        -1.393043         0.313147
 C         1.388863         0.010574         0.051468
 C        -0.004960        -0.023414         0.590764
 C         1.977593         0.255779        -1.290412
 C         3.323259         0.385994        -0.660035
 C         2.792213         0.592186         0.705602
 O         3.144553         1.375504         1.765657
 H         5.003619        -1.268305         1.819343
 H         3.722592        -2.585531         1.754830
 H         4.782903        -2.156030         0.318218
 H        -0.162114        -1.006991         1.148041
 H        -0.185059         0.796413         1.307439
 H        -0.820946        -0.045061        -0.199812
 H         1.766243        -0.518248        -2.026663
 H         1.654885         1.269447        -1.692011
 H         4.278819         0.553549        -1.154414
 H         3.188530         2.331831         1.493315
