19
Iteration:  4361
 C         4.328238        -1.657563         1.107308
 C         3.327556        -0.772320         0.395677
 O         2.059893        -1.447325         0.117474
 C         1.465338        -0.075272         0.046490
 C         0.047003        -0.028592         0.514485
 C         2.031050         0.486851        -1.277117
 C         3.441876         0.358665        -0.666380
 C         2.704025         0.428008         0.837080
 O         2.715390         1.346506         1.965140
 H         4.349502        -2.579372         0.488340
 H         5.439447        -1.290354         1.287982
 H         3.973425        -1.834882         2.129295
 H        -0.570253         0.066365        -0.363822
 H        -0.233036        -0.914264         1.003469
 H        -0.017211         0.848432         1.186455
 H         1.783731        -0.217552        -2.163259
 H         1.664318         1.504372        -1.492723
 H         4.402446         0.642023        -1.034355
 H         3.424498         0.958307         2.567229
