19
Iteration:  4294charge 0 multiplicity 1
 C         4.351663        -1.646150         1.002212
 C         3.297108        -0.799298         0.456424
 O         1.979519        -1.445018         0.091392
 C         1.480028        -0.064843         0.042332
 C        -0.014929        -0.062955         0.478848
 C         2.106861         0.446974        -1.235519
 C         3.520217         0.356575        -0.510645
 C         2.615471         0.468769         0.871541
 O         2.826045         1.301841         1.954108
 H         3.888750        -2.672898         0.751796
 H         5.363645        -1.683487         0.485415
 H         4.483802        -1.557189         2.096919
 H        -0.561372        -0.596663        -0.264264
 H        -0.100180        -0.679515         1.329178
 H        -0.516252         0.933467         0.587065
 H         1.908662        -0.058812        -2.234779
 H         1.817944         1.525540        -1.378203
 H         4.517824         0.907610        -0.622147
 H         2.798325         2.222417         1.687336
