19
Iteration:   945
 C         4.491232        -1.627508         0.951516
 C         3.311863        -0.842910         0.387004
 O         2.123085        -1.489940         0.027999
 C         1.511469        -0.172207         0.000161
 C        -0.057800         0.077778         0.267062
 C         2.117645         0.612088        -1.161987
 C         3.369425         0.638988        -0.421698
 C         2.704069         0.425679         0.907633
 O         2.635422         0.970238         2.150353
 H         4.199937        -1.997874         2.000678
 H         4.873636        -2.465614         0.332517
 H         5.269274        -0.868447         1.066621
 H        -0.534433        -0.855952         0.482809
 H        -0.366045         0.729130         1.035462
 H        -0.502646         0.470578        -0.656737
 H         2.141960        -0.022910        -2.120522
 H         1.642615         1.615392        -1.316155
 H         4.426207         0.990377        -0.591187
 H         2.107482         1.803128         2.187310
