19
Iteration:  3807charge 0 multiplicity 1
 C         4.224034        -1.815104         1.134503
 C         3.266926        -0.799379         0.355914
 O         2.067293        -1.374691        -0.116315
 C         1.467233        -0.011942         0.025893
 C         0.050351        -0.147754         0.492478
 C         2.106316         0.678324        -1.196071
 C         3.468429         0.527216        -0.459439
 C         2.663139         0.411614         0.861410
 O         2.803164         1.104699         2.012200
 H         3.583787        -2.640219         1.447808
 H         4.915717        -2.168003         0.340822
 H         4.654190        -1.228298         1.922884
 H        -0.655989         0.514244        -0.158049
 H        -0.055931        -1.243268         0.478040
 H         0.018716         0.299673         1.551920
 H         1.934340         0.261535        -2.224759
 H         1.894526         1.742431        -1.155899
 H         4.427215         1.149759        -0.391364
 H         3.165182         1.950834         1.697065
