19
Iteration:  4641
 C         4.343651        -1.893287         0.848763
 C         3.317608        -0.840831         0.447682
 O         2.040694        -1.356066         0.074978
 C         1.434334        -0.041736         0.078235
 C        -0.017946        -0.202517         0.329483
 C         2.107431         0.604243        -1.152165
 C         3.387256         0.444275        -0.343613
 C         2.756880         0.488025         0.916843
 O         2.805501         1.445074         1.921281
 H         5.030740        -2.118373        -0.009621
 H         4.840817        -1.641530         1.777648
 H         3.842990        -2.873843         1.132305
 H        -0.230086        -0.973254        -0.377458
 H        -0.256832        -0.453175         1.344999
 H        -0.572516         0.708477         0.127788
 H         2.202237        -0.074926        -1.984099
 H         1.711169         1.644207        -1.246408
 H         4.342581         0.962524        -0.497970
 H         2.369300         1.153786         2.714018
