19
Iteration:   522
 C         4.301315        -1.802273         0.744338
 C         3.226289        -0.835977         0.400698
 O         2.065860        -1.336795        -0.216766
 C         1.438558         0.117500        -0.009515
 C        -0.000591        -0.204284         0.214659
 C         2.288238         0.814751        -1.159437
 C         3.468154         0.607012        -0.212863
 C         2.642990         0.410009         1.061090
 O         2.643747         0.996572         2.312049
 H         3.841714        -2.506383         1.389659
 H         4.809273        -2.162108        -0.160687
 H         5.070946        -1.407953         1.316922
 H        -0.201036        -0.516333         1.222861
 H        -0.703931         0.581194        -0.002177
 H        -0.177456        -1.079307        -0.389770
 H         2.271969         0.285973        -2.116701
 H         2.105200         1.802415        -1.306630
 H         4.554277         0.902864        -0.278830
 H         3.451649         0.710126         2.762570
