19
Iteration:  3368charge 0 multiplicity 1
 C         4.465714        -1.508924         1.066937
 C         3.212862        -0.823136         0.485917
 O         1.988250        -1.468121         0.338812
 C         1.450797        -0.042082         0.088029
 C         0.040988         0.358831         0.363926
 C         1.972096         0.207186        -1.291178
 C         3.371131         0.253466        -0.619681
 C         2.701062         0.470134         0.733277
 O         2.901117         1.122108         1.933266
 H         5.251823        -1.939641         0.391001
 H         5.152765        -0.920302         1.691668
 H         4.043589        -2.373021         1.640443
 H        -0.117172         1.117414         1.075424
 H        -0.555161         0.632503        -0.514374
 H        -0.520556        -0.527609         0.695894
 H         1.852289        -0.744090        -1.872415
 H         1.801861         1.100580        -1.889395
 H         4.348781         0.578711        -1.092662
 H         2.702056         2.056930         2.028447
