19
Iteration:  4408
 C         4.550612        -1.546748         0.781725
 C         3.232506        -0.807375         0.547412
 O         1.907901        -1.548188         0.322163
 C         1.368118        -0.193992         0.088078
 C        -0.025036         0.182998         0.272869
 C         2.165134         0.337079        -1.339210
 C         3.315565         0.455779        -0.393133
 C         2.666702         0.422503         0.904696
 O         2.932301         1.283363         1.936581
 H         5.017864        -1.764272        -0.165091
 H         5.195563        -0.856088         1.422331
 H         4.416177        -2.401470         1.507354
 H        -0.620036        -0.191148        -0.620484
 H        -0.403890        -0.451483         1.173846
 H        -0.135891         1.214309         0.501813
 H         2.169681        -0.270354        -2.263739
 H         1.809111         1.337999        -1.535437
 H         4.336023         0.754417        -0.704409
 H         2.253581         1.098144         2.629925
