19
Iteration:  4036
 C         4.454854        -1.652207         0.928175
 C         3.249606        -0.827644         0.528644
 O         1.977996        -1.439636         0.133232
 C         1.454316        -0.033983         0.159355
 C        -0.127415         0.003678         0.207014
 C         2.061747         0.414995        -1.212471
 C         3.399991         0.435559        -0.486394
 C         2.696917         0.491137         0.871374
 O         2.945690         1.167360         2.067565
 H         4.229901        -2.657024         0.602096
 H         5.393933        -1.357693         0.304310
 H         4.685153        -1.628640         2.008187
 H        -0.263817         0.551925         1.128352
 H        -0.512761         0.640962        -0.556275
 H        -0.627627        -0.909279         0.298780
 H         1.902374        -0.225682        -2.133864
 H         1.880730         1.468582        -1.476830
 H         4.314328         0.845041        -0.821468
 H         2.706819         2.083096         1.924681
