19
Iteration:  3510charge 0 multiplicity 1
 C         4.364755        -1.738439         0.962960
 C         3.213792        -0.822709         0.441783
 O         1.895604        -1.432492         0.154436
 C         1.385200        -0.090535         0.019834
 C        -0.012394        -0.014085         0.397939
 C         2.129598         0.432352        -1.308663
 C         3.406465         0.443858        -0.510493
 C         2.728013         0.504778         0.895925
 O         2.974698         1.294994         2.074230
 H         3.898120        -2.436987         1.725874
 H         4.763675        -2.468038         0.265810
 H         5.194283        -1.135700         1.431699
 H        -0.683452        -0.600640        -0.225614
 H        -0.038307        -0.390024         1.450793
 H        -0.273895         1.094881         0.364812
 H         2.071354        -0.384147        -2.093026
 H         1.807071         1.359968        -1.787572
 H         4.381612         0.831335        -0.870951
 H         3.133167         2.187253         1.722625
