19
Iteration:  1707
 C         4.453208        -1.668706         0.998286
 C         3.295585        -0.845664         0.505950
 O         2.006798        -1.495206         0.128376
 C         1.472658        -0.123391         0.059656
 C         0.004437         0.021893         0.528866
 C         2.078835         0.440307        -1.226848
 C         3.426450         0.364785        -0.571382
 C         2.731451         0.480407         0.830027
 O         2.723329         1.373594         1.883625
 H         4.501993        -2.524895         0.343388
 H         5.471056        -1.141890         0.920734
 H         4.390507        -2.016562         2.035897
 H        -0.631158         0.105528        -0.361148
 H        -0.174306        -0.841280         1.197804
 H         0.004023         1.008314         1.031520
 H         1.986748        -0.138230        -2.168827
 H         1.605911         1.444135        -1.274725
 H         4.489481         0.590617        -0.848328
 H         1.888802         1.863240         1.863015
