19
Iteration:  3277charge 0 multiplicity 1
 C         4.161492        -1.881495         1.043984
 C         3.305882        -0.800400         0.482869
 O         2.051309        -1.368750         0.399387
 C         1.417245        -0.105850         0.136215
 C        -0.049625        -0.063852         0.412999
 C         2.029389         0.224107        -1.258576
 C         3.444340         0.258451        -0.599639
 C         2.702867         0.625218         0.784883
 O         3.092306         1.630984         1.755588
 H         5.020564        -1.583504         1.610232
 H         3.502086        -2.251567         1.845873
 H         4.277823        -2.639511         0.291193
 H        -0.308842        -0.856109         1.100057
 H        -0.351041         0.839283         0.893396
 H        -0.591149        -0.153942        -0.476885
 H         1.743386        -0.561949        -1.950773
 H         1.661511         1.163385        -1.685848
 H         4.355154         0.700301        -1.031859
 H         3.034682         2.526395         1.326097
