19
Iteration:  3203charge 0 multiplicity 1
 C         4.386547        -1.581640         1.066069
 C         3.175079        -0.847404         0.583212
 O         1.936949        -1.556733         0.399341
 C         1.443906        -0.052665         0.105620
 C         0.084952         0.338058         0.505690
 C         2.001440         0.117096        -1.341076
 C         3.366770         0.184630        -0.646128
 C         2.760397         0.514764         0.725491
 O         2.888428         1.398360         1.740786
 H         4.751270        -0.808045         1.758476
 H         4.315356        -2.500740         1.698433
 H         5.049319        -1.669640         0.218352
 H        -0.350449        -0.395652         1.206081
 H         0.099409         1.346048         1.055689
 H        -0.575873         0.492018        -0.390675
 H         1.790089        -0.785429        -1.963059
 H         1.752549         1.041311        -1.895202
 H         4.410996         0.221308        -1.034283
 H         3.680419         1.953119         1.549315
