19
Iteration:  4978charge 0 multiplicity 1
 C         4.268103        -1.673551         0.998143
 C         3.292261        -0.766556         0.429389
 O         2.055280        -1.436937        -0.005722
 C         1.472630        -0.083646        -0.030554
 C         0.041661        -0.046107         0.378789
 C         2.072774         0.549216        -1.244501
 C         3.420249         0.558796        -0.408180
 C         2.662427         0.428633         0.871538
 O         2.821746         1.154876         2.091992
 H         4.199992        -2.560308         0.359044
 H         5.248187        -1.221689         0.812350
 H         4.064653        -1.842318         2.075013
 H        -0.587805        -0.710092        -0.248250
 H        -0.040604        -0.452460         1.381662
 H        -0.429719         0.986205         0.267229
 H         1.788538         0.072746        -2.111607
 H         1.873838         1.610316        -1.392045
 H         4.434138         0.815263        -0.717078
 H         3.420758         0.657264         2.682388
