19
Iteration:  1390
 C         4.402313        -1.462105         0.939757
 C         3.172155        -0.817803         0.505869
 O         1.978058        -1.477161        -0.033333
 C         1.350705        -0.137981        -0.092211
 C        -0.121396        -0.127063         0.273108
 C         2.282940         0.569618        -1.207629
 C         3.391325         0.471073        -0.322212
 C         2.620126         0.415778         0.952623
 O         2.961450         1.108133         2.105590
 H         5.132961        -1.765754         0.134554
 H         4.975093        -0.766047         1.545554
 H         4.311586        -2.263055         1.674436
 H        -0.209570        -1.096540         0.731561
 H        -0.268874         0.615982         1.052320
 H        -0.786700         0.092626        -0.538316
 H         2.224589         0.085727        -2.234331
 H         1.927736         1.588437        -1.230383
 H         4.440129         0.822993        -0.442352
 H         2.805404         2.079591         1.986515
