19
Iteration:   305charge 0 multiplicity 1
 C         4.455394        -1.653438         0.759678
 C         3.179399        -0.924601         0.423135
 O         2.003080        -1.339165        -0.273510
 C         1.450998         0.016553        -0.038205
 C        -0.074439         0.000842         0.123732
 C         2.286473         0.795797        -1.107521
 C         3.502097         0.517836        -0.151331
 C         2.646772         0.340391         1.072663
 O         2.647874         0.861698         2.353530
 H         4.215568        -2.437672         1.536173
 H         5.025569        -2.182484        -0.049969
 H         5.045805        -0.864359         1.180517
 H        -0.482348         0.815094         0.756560
 H        -0.518096         0.167019        -0.928165
 H        -0.325072        -0.997038         0.577894
 H         2.277204         0.282257        -2.086447
 H         1.864018         1.749468        -1.130202
 H         4.633489         0.782066        -0.186149
 H         3.243475         1.633813         2.494713
