19
Iteration:  4956
 C         4.479892        -1.569976         0.958656
 C         3.295029        -0.819230         0.373572
 O         1.985522        -1.463395         0.121608
 C         1.435832        -0.075035         0.094510
 C        -0.099198         0.103689         0.249167
 C         2.092454         0.518703        -1.229756
 C         3.396841         0.466449        -0.503488
 C         2.717933         0.458686         0.830230
 O         2.804489         1.039195         2.178084
 H         4.814679        -2.247794         0.138159
 H         5.331561        -0.937965         1.186439
 H         4.117584        -2.159271         1.819750
 H        -0.675642        -0.679742        -0.289311
 H        -0.425396         0.107396         1.291731
 H        -0.389352         1.049720        -0.307437
 H         2.056943         0.050788        -2.175267
 H         1.697993         1.526989        -1.369891
 H         4.315147         0.985628        -0.635116
 H         3.452993         0.527187         2.704132
