19
Iteration:  3628
 C         4.247505        -1.891518         1.043161
 C         3.270717        -0.846485         0.455593
 O         1.991279        -1.412151        -0.063669
 C         1.482384        -0.014948         0.051163
 C         0.029354        -0.085186         0.412798
 C         2.053948         0.580364        -1.208869
 C         3.397066         0.550632        -0.459746
 C         2.727092         0.472222         0.899396
 O         2.927533         1.228610         2.017316
 H         5.067526        -1.301016         1.427103
 H         3.720003        -2.122921         1.911158
 H         4.540944        -2.613652         0.304326
 H        -0.012614         0.215595         1.467618
 H        -0.768115         0.456293        -0.153136
 H        -0.113977        -1.170732         0.341803
 H         2.000354         0.100747        -2.175768
 H         1.793594         1.617754        -1.396252
 H         4.406430         0.855530        -0.691242
 H         2.937181         2.157011         1.808493
