19
Iteration:  4395charge 0 multiplicity 1
 C         4.509660        -1.536360         0.879419
 C         3.279986        -0.859101         0.458436
 O         1.924760        -1.447188         0.298161
 C         1.449999        -0.091224         0.016386
 C        -0.030941         0.108400         0.361457
 C         2.117831         0.339497        -1.252811
 C         3.426559         0.382920        -0.466457
 C         2.592399         0.452979         0.861824
 O         2.841138         1.260327         1.929919
 H         4.977889        -1.937224        -0.012470
 H         5.342013        -0.796856         1.221011
 H         4.364343        -2.413776         1.546961
 H        -0.685597         0.123545        -0.519049
 H        -0.408231        -0.594074         1.096447
 H        -0.109780         1.110040         0.702604
 H         2.060144        -0.490989        -2.042373
 H         1.753463         1.258077        -1.685423
 H         4.363966         0.804487        -0.620466
 H         2.702773         0.802403         2.795476
