19
Iteration:  1575
 C         4.432197        -1.641488         0.901688
 C         3.252860        -0.789690         0.544488
 O         1.984974        -1.414615         0.170344
 C         1.438612        -0.113106         0.067216
 C        -0.056265        -0.070626         0.250826
 C         2.147307         0.437402        -1.285931
 C         3.447257         0.509662        -0.539145
 C         2.681813         0.518620         0.844538
 O         2.769269         1.192465         2.166008
 H         4.605432        -1.492499         1.961517
 H         4.167324        -2.627471         0.509307
 H         5.282009        -1.317239         0.294117
 H        -0.310086        -0.713739         1.081440
 H        -0.262417         0.863322         0.746082
 H        -0.719544        -0.040772        -0.619809
 H         2.016114        -0.288861        -2.114115
 H         1.628678         1.347939        -1.594462
 H         4.412280         0.827289        -0.858850
 H         3.746600         1.228381         2.247450
