19
Iteration:  3641
 C         4.161926        -1.849943         1.045886
 C         3.239932        -0.861060         0.453484
 O         2.083401        -1.351400         0.007319
 C         1.428482        -0.006968         0.059760
 C        -0.034254        -0.209558         0.421552
 C         2.085405         0.726208        -1.153011
 C         3.501017         0.495812        -0.498072
 C         2.743173         0.451656         0.843881
 O         2.944023         1.236475         1.978728
 H         5.229170        -1.572308         1.084442
 H         3.892399        -2.283884         1.982806
 H         4.138337        -2.790679         0.504502
 H        -0.447591         0.145220         1.342421
 H        -0.566377         0.255810        -0.462568
 H        -0.329999        -1.345515         0.422684
 H         1.762126         0.145034        -2.048321
 H         1.757834         1.753622        -1.125299
 H         4.452572         0.847347        -0.763492
 H         2.940519         2.176424         1.631141
