19
Iteration:   584charge 0 multiplicity 1
 C         4.468782        -1.660742         0.863640
 C         3.308612        -0.841440         0.349949
 O         2.024558        -1.365436        -0.215203
 C         1.482858        -0.052541         0.070545
 C        -0.026232         0.084830         0.199321
 C         2.181329         0.676014        -1.108507
 C         3.459519         0.581448        -0.285296
 C         2.656247         0.317884         0.981210
 O         2.671032         0.862549         2.277902
 H         4.270224        -2.334831         1.748554
 H         4.895369        -2.473372         0.205444
 H         5.256688        -0.837459         1.154444
 H        -0.588457        -0.892784         0.099855
 H        -0.274247         0.500013         1.191501
 H        -0.340423         0.785149        -0.667116
 H         2.068398         0.287936        -2.145505
 H         1.794249         1.836552        -0.943417
 H         4.410335         1.138118        -0.530485
 H         1.772969         1.198497         2.461116
