19
Iteration:  3955charge 0 multiplicity 1
 C         4.328926        -1.722523         1.094434
 C         3.274810        -0.888029         0.380154
 O         2.086636        -1.490966        -0.091245
 C         1.482553        -0.120698        -0.012530
 C         0.113497         0.013945         0.557042
 C         2.079902         0.642470        -1.220954
 C         3.403494         0.393388        -0.527009
 C         2.639561         0.392224         0.870815
 O         2.724981         1.273943         2.045594
 H         3.761216        -2.322136         1.846351
 H         4.794074        -2.389106         0.445264
 H         5.036184        -1.056008         1.573770
 H        -0.005533         0.685991         1.388550
 H        -0.514415         0.399117        -0.290294
 H        -0.383668        -0.953931         0.905747
 H         2.127519         0.193659        -2.200733
 H         1.815720         1.719030        -1.271089
 H         4.409393         0.940967        -0.609362
 H         2.865880         2.155606         1.658927
