19
Iteration:  2010
 C         4.267097        -1.771113         1.093091
 C         3.266934        -0.845025         0.422830
 O         2.033425        -1.444441         0.282181
 C         1.392714        -0.192366         0.050706
 C        -0.006068        -0.013794         0.487883
 C         1.978341         0.396529        -1.248003
 C         3.415082         0.472710        -0.675688
 C         2.762137         0.530631         0.780506
 O         3.024921         1.386729         1.908726
 H         4.436554        -2.597960         0.352813
 H         5.298809        -1.494231         1.449714
 H         3.764550        -2.307549         1.946725
 H        -0.115765         0.084513         1.518888
 H        -0.344662         0.964747         0.171941
 H        -0.764451        -0.694962         0.170803
 H         1.635411        -0.194863        -2.144901
 H         1.547436         1.368222        -1.399738
 H         4.237758         1.086802        -1.048901
 H         3.231699         2.216959         1.423009
