19
Iteration:  2125charge 0 multiplicity 1
 C         4.233823        -1.735197         1.089740
 C         3.317538        -0.767102         0.508925
 O         2.048468        -1.399409         0.281067
 C         1.440778        -0.095839         0.133359
 C        -0.022131         0.083513         0.571524
 C         1.882035         0.221587        -1.376528
 C         3.341875         0.297983        -0.728634
 C         2.815779         0.525664         0.765964
 O         3.084548         1.410720         1.863117
 H         5.118981        -1.322291         1.686196
 H         3.453856        -2.251315         1.776326
 H         4.516708        -2.608866         0.458672
 H        -0.285170        -0.891981         1.096935
 H        -0.224613         0.925117         1.241529
 H        -0.641261         0.269818        -0.344316
 H         1.686019        -0.583490        -2.100578
 H         1.461016         1.231446        -1.724891
 H         4.243340         0.825540        -1.017803
 H         3.206083         2.301675         1.478094
