19
Iteration:  1858charge 0 multiplicity 1
 C         4.391226        -1.731913         0.927468
 C         3.197735        -0.911832         0.548110
 O         1.991996        -1.459598         0.227255
 C         1.459822        -0.049798         0.009805
 C         0.037767        -0.040884         0.576633
 C         2.104899         0.448582        -1.295447
 C         3.409240         0.422283        -0.501672
 C         2.756956         0.435998         0.827499
 O         2.769508         1.415944         1.848709
 H         4.983661        -1.537831         1.854931
 H         3.959627        -2.743166         1.064637
 H         5.137867        -1.877997         0.130868
 H        -0.231721        -0.942440         1.079891
 H         0.051658         0.780277         1.343534
 H        -0.787083         0.309445        -0.099997
 H         2.194201        -0.060379        -2.301506
 H         1.849566         1.492196        -1.397991
 H         4.434587         0.610793        -0.891606
 H         2.693563         2.238821         1.324469
