19
Iteration:   332
 C         4.376216        -1.698099         0.871270
 C         3.184734        -0.864326         0.395867
 O         2.032519        -1.381551        -0.193605
 C         1.433225         0.025710        -0.115333
 C        -0.095150        -0.101239         0.076908
 C         2.283794         0.990459        -1.057526
 C         3.461839         0.536490        -0.138647
 C         2.529975         0.283398         1.038856
 O         2.837947         0.821330         2.259493
 H         3.922373        -2.388065         1.558869
 H         4.901588        -2.280564         0.140906
 H         5.004366        -0.925625         1.409906
 H        -0.609793         0.829538         0.328569
 H        -0.398823        -0.411393        -0.882893
 H        -0.080718        -0.829229         0.881188
 H         2.224287         0.801255        -2.113778
 H         1.924329         2.054270        -0.807043
 H         4.471684         0.828289        -0.144774
 H         3.377831         1.641776         2.146481
