19
Iteration:  3022
 C         4.362567        -1.648696         1.054553
 C         3.186858        -0.919307         0.580312
 O         1.916052        -1.458777         0.375967
 C         1.435006        -0.088832         0.058489
 C         0.089477         0.167742         0.637725
 C         2.054977         0.175316        -1.358666
 C         3.344624         0.141651        -0.594297
 C         2.791938         0.517158         0.755744
 O         2.935099         1.626689         1.589891
 H         5.134093        -0.843736         1.361780
 H         4.163179        -2.198551         2.009925
 H         4.765172        -2.333159         0.230247
 H         0.116779        -0.116848         1.675489
 H        -0.057175         1.255190         0.707734
 H        -0.785165        -0.309037         0.163182
 H         1.963318        -0.561587        -2.216045
 H         1.842777         1.142338        -1.872487
 H         4.310539         0.183316        -1.124816
 H         2.508054         1.403286         2.425886
