19
Iteration:    80charge 0 multiplicity 1
 C         4.452903        -1.838396         0.758740
 C         3.333529        -0.947298         0.330622
 O         2.123565        -1.358272        -0.251267
 C         1.472169        -0.038944         0.033226
 C         0.057217         0.149784         0.190284
 C         2.146498         0.838512        -1.018678
 C         3.495599         0.449004        -0.248587
 C         2.582433         0.229965         1.065909
 O         2.554633         1.075136         2.223565
 H         4.141644        -2.472034         1.657326
 H         4.984404        -2.471420         0.012337
 H         5.139869        -1.139060         1.172902
 H        -0.240750         1.172585         0.625660
 H        -0.521929         0.087247        -0.744881
 H        -0.430460        -0.524796         0.887777
 H         1.973339         0.534172        -2.117312
 H         1.975480         1.814182        -0.880328
 H         4.320218         1.154964        -0.052604
 H         2.089346         0.695645         2.964050
