19
Iteration:  1757
 C         4.492299        -1.542792         0.940699
 C         3.216533        -0.808296         0.493397
 O         1.995847        -1.508554         0.171472
 C         1.417555        -0.086190         0.082358
 C        -0.072238         0.033936         0.368314
 C         2.052399         0.287168        -1.265568
 C         3.366838         0.358182        -0.562416
 C         2.713534         0.582217         0.878067
 O         2.866810         1.284240         2.032230
 H         5.330578        -1.671012         0.168827
 H         4.868913        -1.118687         1.818305
 H         4.272797        -2.613723         1.217996
 H        -0.670936        -0.255389        -0.513900
 H        -0.271551        -0.594482         1.199618
 H        -0.121110         1.107730         0.453314
 H         1.637049        -0.524840        -1.902735
 H         1.801207         1.311281        -1.560830
 H         4.309705         0.544006        -1.081122
 H         3.558018         1.952175         2.157455
