19
Iteration:  4435charge 0 multiplicity 1
 C         4.516829        -1.697551         0.782685
 C         3.258196        -0.848496         0.549462
 O         1.995183        -1.501162         0.203131
 C         1.367303        -0.112717         0.120640
 C        -0.064171         0.076106         0.176333
 C         2.035762         0.335247        -1.157737
 C         3.398245         0.433015        -0.407161
 C         2.714969         0.449186         0.974367
 O         2.928662         1.410607         1.968425
 H         4.930669        -1.707039        -0.260791
 H         5.269397        -1.113510         1.285864
 H         4.444751        -2.564461         1.400510
 H        -0.616158        -0.696349        -0.362844
 H        -0.424531        -0.004160         1.217763
 H        -0.213167         1.139475        -0.300185
 H         1.731109        -0.291150        -1.997873
 H         1.668870         1.357582        -1.448782
 H         4.327825         0.747639        -0.848362
 H         2.145471         1.403152         2.545733
