19
Iteration:  1108charge 0 multiplicity 1
 C         4.402923        -1.648572         0.622896
 C         3.247680        -0.759273         0.578445
 O         1.990368        -1.432217         0.061553
 C         1.443334        -0.051753        -0.011603
 C         0.011758        -0.072958         0.324693
 C         2.430217         0.502425        -1.335073
 C         3.445996         0.601526        -0.279047
 C         2.611947         0.481390         0.982429
 O         2.601505         1.037397         2.220201
 H         4.029270        -2.656898         0.875022
 H         4.893207        -1.564757        -0.304291
 H         5.043132        -1.357171         1.421115
 H        -0.106170         0.216149         1.342298
 H        -0.527748         0.707988        -0.191070
 H        -0.408568        -1.023781         0.040339
 H         2.431821        -0.349779        -2.051431
 H         2.038368         1.388884        -1.697900
 H         4.484387         0.789087        -0.239584
 H         2.286167         1.970307         2.144436
