19
Iteration:  4398charge 0 multiplicity 1
 C         4.529916        -1.526582         0.874331
 C         3.272534        -0.832956         0.458162
 O         1.911785        -1.465428         0.315463
 C         1.434312        -0.111148         0.022175
 C        -0.014468         0.118616         0.339122
 C         2.130825         0.331100        -1.288320
 C         3.409543         0.397704        -0.437534
 C         2.588659         0.444178         0.887021
 O         2.860263         1.249432         1.916520
 H         4.905148        -1.963202        -0.055442
 H         5.270357        -0.799065         1.241274
 H         4.415516        -2.478427         1.437514
 H        -0.668664         0.098458        -0.594517
 H        -0.446613        -0.539870         1.207000
 H        -0.165797         1.131813         0.727203
 H         2.077386        -0.438015        -2.032096
 H         1.760423         1.306642        -1.613430
 H         4.428700         0.830151        -0.675474
 H         2.617467         0.896016         2.818006
