19
Iteration:  1363
 C         4.403775        -1.749386         1.019057
 C         3.345775        -0.797127         0.407049
 O         2.079495        -1.440341        -0.015924
 C         1.440089        -0.074018         0.039215
 C        -0.005688        -0.096671         0.275455
 C         2.101456         0.605326        -1.200356
 C         3.391443         0.593160        -0.437652
 C         2.693069         0.421981         0.904388
 O         2.734101         1.133812         2.093879
 H         4.447458        -2.690145         0.471396
 H         5.417362        -1.267469         1.210853
 H         4.068636        -1.948071         2.067867
 H        -0.277130        -1.126501         0.621941
 H        -0.185974         0.463680         1.220859
 H        -0.609591         0.180717        -0.640833
 H         1.925955         0.055399        -2.097408
 H         1.601004         1.617086        -1.144432
 H         4.309138         1.121397        -0.498294
 H         2.615924         2.094157         1.879408
