19
Iteration:  2791
 C         4.309348        -1.579384         1.183605
 C         3.331531        -0.836683         0.394442
 O         2.067374        -1.524316         0.300306
 C         1.487402        -0.064370         0.125616
 C         0.049474         0.132465         0.626881
 C         1.806113         0.293063        -1.267903
 C         3.360603         0.111679        -0.775026
 C         2.729337         0.487241         0.770678
 O         2.951174         1.519944         1.640603
 H         5.403416        -1.606262         0.953417
 H         4.262283        -1.033890         2.196800
 H         4.003903        -2.627572         1.465644
 H         0.154147        -0.427894         1.587729
 H         0.029361         1.210780         0.930818
 H        -0.640200        -0.294286        -0.153738
 H         1.452518        -0.414046        -2.083288
 H         1.460453         1.306032        -1.518268
 H         4.127676         0.701513        -1.163940
 H         3.334451         1.170509         2.442225
