19
Iteration:  3296charge 0 multiplicity 1
 C         4.235727        -1.855497         1.232348
 C         3.260751        -0.816479         0.540204
 O         1.929041        -1.358237         0.278413
 C         1.395321         0.014807         0.039012
 C        -0.033820        -0.116826         0.518538
 C         2.045203         0.286482        -1.407689
 C         3.343642         0.323977        -0.588478
 C         2.846176         0.543355         0.735813
 O         3.077391         1.547158         1.792254
 H         5.268417        -1.485877         1.196274
 H         4.103605        -1.990307         2.305371
 H         4.137896        -2.788671         0.647513
 H         0.053504        -0.774613         1.444463
 H        -0.580337         0.763690         0.842805
 H        -0.699834        -0.519902        -0.292802
 H         1.881597        -0.565915        -2.079481
 H         1.824249         1.260538        -1.881585
 H         4.335506         0.552698        -1.095796
 H         3.227030         2.421576         1.374437
