19
Iteration:  3229
 C         4.604155        -1.701369         0.930786
 C         3.240794        -0.933112         0.552529
 O         1.812777        -1.463110         0.512873
 C         1.363960        -0.052961         0.102563
 C        -0.059397         0.266706         0.378342
 C         2.072225         0.170448        -1.293157
 C         3.363433         0.084597        -0.493433
 C         2.751934         0.495599         0.844020
 O         2.932883         1.542156         1.680803
 H         4.991743        -1.113392         1.758968
 H         4.549127        -2.649911         1.432791
 H         5.068648        -1.701175        -0.054511
 H        -0.502828        -0.512610         1.015478
 H        -0.129258         1.165966         1.020943
 H        -0.644959         0.496352        -0.562954
 H         1.880259        -0.442211        -2.189303
 H         1.966901         1.184292        -1.697077
 H         4.300635         0.471891        -0.854276
 H         3.301932         2.312820         1.211713
