19
Iteration:  4170
 C         4.327630        -1.742534         1.202507
 C         3.281993        -0.915735         0.286410
 O         2.075348        -1.505979        -0.043672
 C         1.398336        -0.065437         0.048956
 C        -0.036688        -0.068192         0.596364
 C         2.122724         0.566338        -1.172573
 C         3.397512         0.408545        -0.501096
 C         2.737234         0.490218         0.818639
 O         2.824796         1.375000         1.882181
 H         5.183112        -2.238686         0.587080
 H         4.673744        -1.372944         2.197157
 H         3.798707        -2.668639         1.633498
 H        -0.335292        -1.049296         0.972478
 H        -0.206261         0.755327         1.318602
 H        -0.578476         0.263470        -0.197887
 H         1.992217         0.120686        -2.182779
 H         1.787525         1.688018        -1.211738
 H         4.311020         0.734541        -0.950856
 H         2.994973         2.222638         1.484849
