19
Iteration:  3568charge 0 multiplicity 1
 C         4.591297        -1.565128         0.865067
 C         3.312640        -0.882032         0.459321
 O         1.856306        -1.426796         0.225468
 C         1.491374        -0.052402         0.075548
 C         0.072167         0.306059         0.335940
 C         2.016052         0.438644        -1.323233
 C         3.412877         0.322765        -0.640081
 C         2.700367         0.387015         0.930683
 O         2.712009         1.003480         2.148193
 H         4.683170        -1.092335         1.893088
 H         4.700876        -2.691484         1.028605
 H         5.604893        -1.384654         0.448963
 H        -0.384562        -0.386419         1.025621
 H         0.051723         1.231080         0.899125
 H        -0.574487         0.348826        -0.579999
 H         1.836617        -0.334370        -2.142545
 H         1.781435         1.487846        -1.602909
 H         4.394917         0.636526        -0.902835
 H         2.408428         1.923499         1.951818
