19
Iteration:  1342
 C         4.277009        -1.789128         0.975362
 C         3.411205        -0.739274         0.389418
 O         2.240897        -1.394974         0.031217
 C         1.485760        -0.112624         0.126851
 C         0.031081        -0.137232         0.340412
 C         2.029111         0.642286        -1.205831
 C         3.485738         0.503192        -0.546354
 C         2.712920         0.514796         0.874294
 O         2.519684         1.129546         2.138512
 H         3.875687        -2.710931         0.571831
 H         5.349648        -1.868482         0.694155
 H         4.334150        -1.869903         2.063655
 H        -0.437677        -1.090240         0.576648
 H        -0.171986         0.543045         1.171743
 H        -0.253875         0.298120        -0.603313
 H         1.830790         0.129664        -2.137297
 H         1.712403         1.723347        -1.222315
 H         4.364693         0.903061        -1.014034
 H         2.800899         2.043349         2.165132
