19
Iteration:   705
 C         4.370960        -1.765679         0.754314
 C         3.264809        -0.903895         0.437472
 O         2.030979        -1.358522        -0.160437
 C         1.438743        -0.013610         0.069426
 C        -0.009952        -0.272040         0.231336
 C         2.267241         0.821170        -1.178638
 C         3.461812         0.610692        -0.200239
 C         2.669884         0.339046         1.024025
 O         2.703203         1.164438         2.192549
 H         4.114346        -2.524308         1.450616
 H         4.895756        -2.100077        -0.131686
 H         5.029447        -1.128289         1.283570
 H        -0.559718         0.410855        -0.401386
 H        -0.194627        -1.340031         0.042830
 H        -0.291457         0.010858         1.277416
 H         2.212058         0.324815        -2.099366
 H         2.040109         1.920512        -1.239745
 H         4.461832         0.963411        -0.296607
 H         1.750538         1.221213         2.377867
