19
Iteration:  2048charge 0 multiplicity 1
 C         4.419643        -1.693395         0.859703
 C         3.277028        -0.871514         0.508556
 O         1.912989        -1.468838         0.305965
 C         1.429314        -0.078590         0.119889
 C        -0.040543         0.222398         0.544807
 C         2.062437         0.222612        -1.250421
 C         3.475646         0.256373        -0.596845
 C         2.750207         0.470691         0.812583
 O         2.850328         1.418075         1.877163
 H         5.037194        -1.568356        -0.055886
 H         4.939245        -1.147332         1.688853
 H         4.244594        -2.771373         1.098128
 H        -0.273232        -0.461299         1.433941
 H        -0.049405         1.311030         0.763464
 H        -0.761050         0.065137        -0.307940
 H         1.761886        -0.600322        -1.923932
 H         1.795521         1.247921        -1.649903
 H         4.470999         0.522505        -0.960740
 H         2.899717         2.307301         1.441807
