19
Iteration:  1995charge 0 multiplicity 1
 C         4.232682        -1.724014         1.111366
 C         3.270576        -0.790924         0.488165
 O         2.009316        -1.479318         0.197136
 C         1.421902        -0.092056         0.081181
 C        -0.085092        -0.096643         0.514431
 C         2.016018         0.498451        -1.271335
 C         3.342868         0.366084        -0.580355
 C         2.799729         0.544947         0.766367
 O         3.092158         1.325488         1.826959
 H         4.208046        -2.704044         0.623940
 H         5.154005        -1.218814         0.947896
 H         3.860681        -1.729347         2.111517
 H        -0.148650         0.091367         1.645565
 H        -0.654324         0.710363         0.010729
 H        -0.426294        -1.145622         0.272371
 H         1.940110         0.001729        -2.216861
 H         1.767070         1.572396        -1.366258
 H         4.343482         0.547974        -0.979422
 H         3.122756         2.302848         1.673459
