19
Iteration:  4491
 C         4.209533        -1.809614         1.036909
 C         3.209676        -0.816091         0.521187
 O         2.088204        -1.411611         0.028101
 C         1.433841        -0.065569        -0.047511
 C         0.136551        -0.238847         0.554438
 C         2.107626         0.612191        -1.301324
 C         3.454154         0.484777        -0.491372
 C         2.674355         0.505084         0.873521
 O         2.792280         1.414501         1.920964
 H         4.127487        -2.759630         0.504016
 H         5.308072        -1.515470         1.042935
 H         3.845252        -2.212703         1.949175
 H        -0.376867        -1.093771         0.077321
 H         0.129997        -0.226930         1.630632
 H        -0.445820         0.664703         0.063133
 H         1.952990         0.022109        -2.248367
 H         1.682161         1.617801        -1.406252
 H         4.396441         0.906726        -0.662651
 H         3.349439         0.942484         2.534646
