19
Iteration:    68
 C         4.369597        -1.877817         0.740779
 C         3.310993        -0.901740         0.392072
 O         2.132419        -1.438391        -0.219145
 C         1.526016        -0.060819         0.011043
 C         0.000563         0.124288         0.291041
 C         2.250721         0.841965        -1.006403
 C         3.500776         0.597477        -0.237398
 C         2.674480         0.286360         1.030730
 O         2.454551         1.075121         2.140126
 H         4.011410        -2.602288         1.529346
 H         4.765756        -2.441213        -0.131205
 H         5.177404        -1.319865         1.133917
 H        -0.038783         1.021343         0.943684
 H        -0.466183         0.328797        -0.668240
 H        -0.404095        -0.757795         0.734824
 H         2.159978         0.554888        -2.070806
 H         1.923740         1.795719        -0.875563
 H         4.414800         1.134766        -0.407989
 H         2.229455         0.418092         2.836623
