19
Iteration:  3335charge 0 multiplicity 1
 C         4.407686        -1.471413         1.225042
 C         3.244538        -0.969664         0.384894
 O         1.938269        -1.531988         0.276979
 C         1.399440        -0.168340         0.027174
 C        -0.017096         0.225585         0.487914
 C         2.029600         0.418160        -1.310074
 C         3.358104         0.206260        -0.606215
 C         2.685555         0.443061         0.785517
 O         3.029043         1.316314         1.826767
 H         5.365277        -1.521531         0.663644
 H         4.307977        -1.063567         2.237883
 H         4.156194        -2.541138         1.436426
 H        -0.011493         0.409185         1.537852
 H        -0.381808         1.054399        -0.153965
 H        -0.653873        -0.675839         0.382636
 H         1.814775        -0.236326        -2.198205
 H         1.985778         1.483004        -1.539645
 H         4.316546         0.568294        -0.992634
 H         3.096544         2.198523         1.461741
