19
Iteration:  1811charge 0 multiplicity 1
 C         4.292647        -1.699288         1.068734
 C         3.283479        -0.830438         0.480583
 O         2.077242        -1.486485         0.175313
 C         1.422307        -0.175055         0.072337
 C        -0.034674        -0.021473         0.422500
 C         1.966489         0.471832        -1.244345
 C         3.401829         0.442000        -0.598388
 C         2.759555         0.470568         0.838109
 O         2.908060         1.398747         1.905903
 H         5.329565        -1.135389         1.027681
 H         4.093013        -2.011105         2.092265
 H         4.604990        -2.598909         0.435848
 H        -0.431421        -1.089129         0.358431
 H        -0.270986         0.190663         1.483530
 H        -0.688528         0.560463        -0.259990
 H         1.556372        -0.159663        -2.144816
 H         1.592482         1.527114        -1.250995
 H         4.340863         0.868715        -1.021691
 H         3.777008         1.795378         1.933552
