19
Iteration:   446charge 0 multiplicity 1
 C         4.552178        -1.700052         0.737229
 C         3.319936        -0.896492         0.365225
 O         2.106273        -1.452111        -0.294357
 C         1.444518        -0.107896         0.000334
 C         0.023421         0.233259         0.239486
 C         2.176310         0.810112        -0.993855
 C         3.473839         0.484863        -0.195967
 C         2.612522         0.245597         1.027111
 O         2.421503         0.934361         2.280876
 H         4.471536        -2.464980         1.508744
 H         4.873203        -2.336819        -0.098619
 H         5.306594        -1.048195         0.951927
 H        -0.223491         1.277027         0.293392
 H        -0.738419         0.003353        -0.507331
 H        -0.320028        -0.159036         1.174357
 H         2.022642         0.507195        -2.113939
 H         1.924351         1.780245        -0.756701
 H         4.507500         0.916160        -0.446102
 H         3.251699         1.398471         2.482611
