19
Iteration:  1219charge 0 multiplicity 1
 C         4.242985        -1.633334         0.918257
 C         3.309034        -0.647818         0.389886
 O         2.062875        -1.335064        -0.014975
 C         1.443446        -0.081734        -0.065327
 C        -0.073758        -0.239391         0.212306
 C         2.172258         0.574008        -1.254447
 C         3.431753         0.600577        -0.402980
 C         2.675590         0.541717         0.987570
 O         2.884774         0.936991         2.325640
 H         4.292892        -1.822519         1.963400
 H         4.112084        -2.568604         0.324901
 H         5.311449        -1.569942         0.657119
 H        -0.480207        -0.241139         1.240258
 H        -0.515878         0.592611        -0.334895
 H        -0.251947        -1.234991        -0.238680
 H         2.264179        -0.075495        -2.116389
 H         1.706263         1.562043        -1.426866
 H         4.431228         1.087115        -0.479076
 H         2.324050         1.712840         2.451757
