19
Iteration:  4479charge 0 multiplicity 1
 C         4.259464        -1.836762         0.953898
 C         3.231759        -0.835255         0.580368
 O         2.003831        -1.430806         0.116600
 C         1.493694        -0.114218        -0.038660
 C         0.035919        -0.193174         0.414949
 C         2.130513         0.578854        -1.224491
 C         3.414843         0.527119        -0.482579
 C         2.770345         0.533558         0.822637
 O         2.797405         1.429360         1.915281
 H         4.275078        -2.509939         0.062725
 H         5.257800        -1.452146         1.214566
 H         3.951766        -2.248280         1.901205
 H        -0.243998        -1.240353         0.207545
 H         0.099364        -0.214674         1.531455
 H        -0.840483         0.588646         0.204500
 H         2.121169         0.168256        -2.233439
 H         1.723937         1.611384        -1.204603
 H         4.350117         0.789453        -0.808513
 H         3.212035         1.062501         2.721265
