19
Iteration:  3964charge 0 multiplicity 1
 C         4.238833        -1.704648         1.148454
 C         3.322016        -0.867539         0.388462
 O         2.079588        -1.511619        -0.128756
 C         1.466106        -0.072264         0.003600
 C         0.118761        -0.017811         0.549658
 C         2.055215         0.635744        -1.191066
 C         3.447349         0.402644        -0.466614
 C         2.650309         0.407335         0.857498
 O         2.732754         1.249562         1.965954
 H         3.721371        -2.471876         1.765333
 H         4.840866        -2.155011         0.360434
 H         5.012476        -1.189739         1.744701
 H         0.287061         0.665956         1.488998
 H        -0.761536         0.381467        -0.116957
 H         0.066088        -1.135945         0.791457
 H         1.680646         0.194320        -2.121753
 H         2.008780         1.753846        -1.311468
 H         4.352700         1.039867        -0.725875
 H         2.974224         2.139011         1.667826
