19
Iteration:  2289
 C         4.352908        -1.863690         1.070699
 C         3.278649        -0.911778         0.529458
 O         2.004687        -1.449397         0.342548
 C         1.423676        -0.144611         0.167575
 C         0.118485         0.186355         0.637897
 C         1.916053         0.433182        -1.243466
 C         3.325573         0.186101        -0.613277
 C         2.784955         0.454371         0.721132
 O         2.972041         1.536718         1.555774
 H         3.772850        -2.664478         1.629329
 H         4.767609        -2.248720         0.117450
 H         5.047613        -1.246365         1.657833
 H         0.178319         0.392438         1.700380
 H        -0.067896         1.127450         0.181292
 H        -0.688044        -0.464119         0.337739
 H         1.721862        -0.150269        -2.165709
 H         1.629883         1.522204        -1.405656
 H         4.244978         0.685318        -0.951021
 H         2.137387         2.007809         1.708828
