19
Iteration:   218
 C         4.397052        -1.749617         0.776817
 C         3.216424        -0.903159         0.346215
 O         2.038879        -1.324257        -0.319186
 C         1.520994         0.071397        -0.000358
 C        -0.018409        -0.062935         0.310648
 C         2.378458         0.841537        -1.056843
 C         3.527254         0.490211        -0.157779
 C         2.575596         0.310795         1.021590
 O         2.573174         0.964530         2.228002
 H         4.259382        -2.460171         1.608848
 H         4.782243        -2.309918        -0.091542
 H         5.075134        -1.041703         1.207027
 H        -0.394567         0.918026         0.482896
 H        -0.571751        -0.530941        -0.522688
 H        -0.066719        -0.594217         1.266952
 H         2.355081         0.457129        -2.027943
 H         2.140621         2.009175        -1.157812
 H         4.542498         0.794401        -0.431292
 H         1.679731         0.971279         2.663657
