19
Iteration:  4347
 C         4.236769        -1.709145         1.132109
 C         3.351014        -0.835923         0.372238
 O         2.096166        -1.435549         0.122632
 C         1.513413        -0.133849         0.034789
 C         0.067792        -0.074966         0.533673
 C         2.038879         0.502844        -1.236723
 C         3.408371         0.420487        -0.556028
 C         2.671581         0.548387         0.763791
 O         2.741745         1.288453         1.837324
 H         4.252278        -2.858409         0.943014
 H         5.234435        -1.349955         1.033854
 H         3.835558        -1.635949         2.158988
 H        -0.777059         0.062720        -0.098641
 H        -0.046965        -0.996421         1.084682
 H        -0.042863         0.799119         1.248589
 H         1.815280         0.095248        -2.256667
 H         1.846189         1.641908        -1.244574
 H         4.258921         1.186807        -0.711103
 H         3.529382         1.234032         2.369035
