19
Iteration:   781
 C         4.552052        -1.510933         0.926409
 C         3.325536        -0.856556         0.363761
 O         2.076068        -1.441330        -0.133801
 C         1.417819        -0.079668         0.029104
 C        -0.027455         0.056861         0.222955
 C         2.129421         0.699641        -1.150440
 C         3.439413         0.484975        -0.330150
 C         2.654303         0.264375         0.944891
 O         2.560171         0.912541         2.247709
 H         4.334337        -1.921295         1.884428
 H         5.032492        -2.237404         0.366867
 H         5.282859        -0.770142         0.990404
 H        -0.144293         0.969157         0.742356
 H        -0.456009         0.236590        -0.726186
 H        -0.480389        -0.763211         0.749817
 H         2.029728         0.177075        -2.010482
 H         1.645243         1.649463        -1.285343
 H         4.364349         1.096464        -0.408038
 H         3.075850         1.739431         2.224292
