19
Iteration:  3957
 C         4.308725        -1.717496         1.115288
 C         3.285811        -0.892813         0.378000
 O         2.087879        -1.498843        -0.100507
 C         1.485127        -0.114982        -0.013370
 C         0.115676         0.014265         0.560810
 C         2.067404         0.650142        -1.203952
 C         3.410037         0.390409        -0.526595
 C         2.629846         0.395871         0.867704
 O         2.727402         1.275834         2.036338
 H         3.737555        -2.347280         1.824575
 H         4.817955        -2.330910         0.377511
 H         5.048441        -1.089112         1.591399
 H         0.053018         0.659043         1.361922
 H        -0.506120         0.379628        -0.224433
 H        -0.280346        -0.983399         0.863070
 H         2.073562         0.186466        -2.215062
 H         1.883062         1.716297        -1.317096
 H         4.374221         0.962074        -0.613444
 H         2.886552         2.141190         1.664483
