19
Iteration:  4325
 C         4.290956        -1.709828         1.196733
 C         3.302208        -0.863055         0.468160
 O         2.035021        -1.497280        -0.000440
 C         1.473060        -0.133598         0.039949
 C         0.030558        -0.142903         0.593404
 C         2.086463         0.623305        -1.278136
 C         3.440224         0.568294        -0.619302
 C         2.702839         0.420828         0.852561
 O         2.766139         1.358978         1.847916
 H         3.939239        -2.833780         1.034724
 H         5.313999        -1.647505         0.916890
 H         3.990088        -1.650360         2.265061
 H        -0.785028        -0.138121        -0.105188
 H        -0.056489        -1.034737         1.227596
 H        -0.231664         0.787299         1.154225
 H         2.011605        -0.054639        -2.170772
 H         1.593074         1.655489        -1.563029
 H         4.531977         0.786967        -0.909940
 H         3.723065         1.630194         1.966398
