19
Iteration:  4500
 C         4.169766        -1.816581         1.120018
 C         3.306923        -0.782920         0.397628
 O         2.100753        -1.415342        -0.037436
 C         1.494364        -0.050919         0.027045
 C         0.094498        -0.211167         0.558513
 C         2.079418         0.576919        -1.330303
 C         3.433009         0.474067        -0.455001
 C         2.626844         0.491275         0.838746
 O         2.783427         1.379523         1.924024
 H         4.107926        -2.749404         0.473500
 H         5.175556        -1.409934         1.021459
 H         4.080055        -2.036693         2.192167
 H        -0.493317        -1.065633         0.156541
 H         0.158276        -0.229723         1.687642
 H        -0.521230         0.796946         0.463507
 H         1.921851        -0.026192        -2.187305
 H         2.034946         1.660138        -1.492756
 H         4.353395         0.929934        -0.561142
 H         3.342236         0.986137         2.594039
