19
Iteration:  4604
 C         4.469879        -1.675622         0.764074
 C         3.267135        -0.825905         0.553565
 O         2.003731        -1.457611         0.226599
 C         1.452790        -0.196488         0.038311
 C        -0.029901         0.057660         0.164752
 C         2.102719         0.476627        -1.204772
 C         3.330916         0.406324        -0.385204
 C         2.645641         0.514900         0.982175
 O         2.849626         1.336021         2.039759
 H         4.903084        -1.844157        -0.244604
 H         5.299325        -1.037311         1.159343
 H         4.262071        -2.657864         1.296724
 H        -0.646721        -0.187486        -0.742270
 H        -0.444613        -0.693970         0.925751
 H        -0.267315         1.075879         0.436408
 H         2.101621        -0.249723        -2.117684
 H         1.776436         1.437166        -1.686996
 H         4.337745         0.793663        -0.540999
 H         2.917939         0.665420         2.738239
