19
Iteration:  3297
 C         4.237179        -1.846469         1.234597
 C         3.254515        -0.823098         0.548131
 O         1.923464        -1.353269         0.272346
 C         1.390898         0.005136         0.037635
 C        -0.031470        -0.115395         0.521304
 C         2.050975         0.292386        -1.402377
 C         3.351010         0.324544        -0.587924
 C         2.845941         0.535819         0.724119
 O         3.076724         1.541637         1.791447
 H         5.250737        -1.472475         1.183785
 H         4.146148        -1.956882         2.310304
 H         4.120662        -2.761389         0.662341
 H         0.055574        -0.745218         1.444735
 H        -0.570705         0.751936         0.829653
 H        -0.668092        -0.526774        -0.255764
 H         1.862504        -0.547033        -2.060310
 H         1.830630         1.258478        -1.884202
 H         4.318746         0.566451        -1.106774
 H         3.232463         2.397055         1.378171
