19
Iteration:  1921
 C         4.455570        -1.681554         0.989492
 C         3.295901        -0.864184         0.430762
 O         2.028372        -1.490832         0.288995
 C         1.416595        -0.130125         0.159556
 C         0.010810         0.191021         0.368951
 C         1.940806         0.279252        -1.291996
 C         3.322422         0.488743        -0.598645
 C         2.709293         0.515023         0.768330
 O         2.921211         1.223640         2.015832
 H         3.994355        -2.309185         1.794931
 H         4.640017        -2.301622         0.152777
 H         5.302035        -1.022514         1.289195
 H        -0.334955         0.142226         1.401701
 H         0.019133         1.187669         0.058694
 H        -0.396883        -0.553357        -0.267003
 H         1.842698        -0.425466        -2.144095
 H         1.525503         1.252843        -1.543765
 H         4.236713         0.951771        -1.036472
 H         2.929554         2.205713         1.937491
