19
Iteration:  4588
 C         4.550720        -1.553488         0.784580
 C         3.243693        -0.871777         0.502055
 O         1.970880        -1.486117         0.167776
 C         1.402698         0.002038         0.095737
 C        -0.079063         0.100442         0.180206
 C         2.105706         0.300460        -1.204648
 C         3.404229         0.455087        -0.407481
 C         2.671547         0.428167         0.946702
 O         2.844895         1.244911         2.074173
 H         4.950362        -2.216004        -0.006804
 H         5.282237        -0.726209         0.996724
 H         4.416298        -2.336156         1.534062
 H        -0.412437         0.124075        -0.871589
 H        -0.535144        -0.583236         0.851806
 H        -0.299651         1.189258         0.566559
 H         1.990572        -0.442124        -1.971055
 H         1.683155         1.261025        -1.487617
 H         4.398994         0.835467        -0.731821
 H         2.642607         0.861705         2.918768
