19
Iteration:  1577charge 0 multiplicity 1
 C         4.448738        -1.621130         0.909439
 C         3.230832        -0.804168         0.549088
 O         1.967950        -1.404539         0.187742
 C         1.453185        -0.101817         0.050460
 C        -0.054266        -0.090209         0.251262
 C         2.163574         0.452636        -1.300359
 C         3.432246         0.478838        -0.521743
 C         2.672250         0.522124         0.843257
 O         2.779933         1.189156         2.160556
 H         4.636341        -1.507034         1.956049
 H         4.160159        -2.635405         0.424041
 H         5.296074        -1.292288         0.275448
 H        -0.268388        -0.755925         1.072879
 H        -0.251027         0.850385         0.774194
 H        -0.694250         0.018184        -0.652794
 H         2.024959        -0.246470        -2.168013
 H         1.554021         1.373668        -1.589975
 H         4.404965         0.840423        -0.863372
 H         3.771399         1.206158         2.261726
