19
Iteration:  3202
 C         4.383574        -1.583870         1.080333
 C         3.166824        -0.854273         0.571020
 O         1.945818        -1.557084         0.403143
 C         1.438757        -0.050491         0.101967
 C         0.094325         0.341506         0.506971
 C         1.991649         0.114770        -1.358946
 C         3.361867         0.190753        -0.646147
 C         2.760224         0.516197         0.730643
 O         2.891382         1.397940         1.743372
 H         4.786327        -0.783738         1.747495
 H         4.280065        -2.529354         1.707333
 H         5.090011        -1.691171         0.247444
 H        -0.333897        -0.408442         1.207900
 H         0.111257         1.335339         1.038357
 H        -0.576281         0.481509        -0.345118
 H         1.800870        -0.798904        -1.966243
 H         1.748449         1.064849        -1.898889
 H         4.424087         0.262202        -1.073833
 H         3.665153         1.953319         1.592622
