19
Iteration:  1392
 C         4.409768        -1.446793         0.934055
 C         3.163480        -0.822109         0.505670
 O         1.972282        -1.471591        -0.034373
 C         1.338602        -0.126355        -0.091786
 C        -0.114995        -0.131973         0.260139
 C         2.277321         0.548366        -1.202874
 C         3.407563         0.456121        -0.327067
 C         2.613787         0.425888         0.954541
 O         2.964950         1.105159         2.115898
 H         5.164413        -1.696426         0.175713
 H         5.047888        -0.776303         1.590414
 H         4.320472        -2.316476         1.629613
 H        -0.161892        -1.139363         0.749317
 H        -0.238074         0.677814         1.028002
 H        -0.857951         0.122746        -0.563663
 H         2.206113         0.119002        -2.222394
 H         1.883873         1.586519        -1.229471
 H         4.406315         0.801503        -0.425250
 H         2.848829         2.073479         1.998270
