19
Iteration:  3189
 C         4.395547        -1.565959         1.201275
 C         3.288516        -0.930006         0.450854
 O         1.932687        -1.485455         0.415896
 C         1.440561        -0.086216         0.003559
 C         0.087055         0.348013         0.568494
 C         1.974252         0.105709        -1.412255
 C         3.305295         0.227557        -0.695069
 C         2.754763         0.470437         0.675208
 O         2.894493         1.412044         1.816503
 H         4.972720        -0.983688         1.996984
 H         3.813337        -2.344772         1.831183
 H         5.087955        -2.228761         0.591237
 H        -0.168535        -0.345377         1.414390
 H         0.238296         1.296025         1.046711
 H        -0.661947         0.334133        -0.168794
 H         1.822200        -0.691440        -2.163640
 H         1.517707         1.035238        -1.878018
 H         4.259461         0.724828        -1.134386
 H         3.692740         1.980433         1.667177
