19
Iteration:  4351charge 0 multiplicity 1
 C         4.263759        -1.702738         1.111409
 C         3.356516        -0.803347         0.379045
 O         2.087542        -1.429198         0.127949
 C         1.469051        -0.129017         0.045863
 C         0.089107        -0.059944         0.508035
 C         2.033716         0.520119        -1.243841
 C         3.431910         0.383319        -0.611978
 C         2.671027         0.506063         0.806422
 O         2.724299         1.310395         1.876899
 H         4.237651        -2.768838         0.920603
 H         5.377751        -1.253968         1.117952
 H         3.794178        -1.710683         2.110848
 H        -0.739976         0.112969        -0.193903
 H        -0.054832        -0.929591         1.130053
 H        -0.016396         0.736594         1.252451
 H         1.794455        -0.065966        -2.216188
 H         1.791326         1.573946        -1.326761
 H         4.259751         1.005755        -0.782525
 H         3.550146         1.070035         2.384677
