19
Iteration:  4660charge 0 multiplicity 1
 C         4.278275        -1.884843         0.962190
 C         3.314664        -0.845193         0.441474
 O         2.057687        -1.401016        -0.076785
 C         1.504194        -0.022328         0.076017
 C         0.026163        -0.228956         0.413991
 C         2.073329         0.660994        -1.197999
 C         3.487567         0.461227        -0.436905
 C         2.660439         0.415069         0.976104
 O         2.809999         1.461348         1.960871
 H         5.030338        -2.218065         0.174687
 H         4.760082        -1.402385         1.762202
 H         3.750859        -2.913965         1.070966
 H        -0.236551        -1.227671        -0.026733
 H        -0.036982        -0.219737         1.619181
 H        -0.669230         0.485777         0.089155
 H         1.572773         0.068067        -2.058227
 H         2.036103         1.824194        -1.127469
 H         4.393940         0.866956        -0.694541
 H         2.154199         1.552147         2.646007
