19
Iteration:   500charge 0 multiplicity 1
 C         4.301160        -1.819705         0.675218
 C         3.289315        -0.779826         0.422768
 O         2.074956        -1.228574        -0.155775
 C         1.453387         0.028482        -0.020983
 C        -0.020023        -0.185390         0.242018
 C         2.300712         0.760044        -1.163173
 C         3.574265         0.532740        -0.346767
 C         2.652665         0.483082         1.066364
 O         2.512898         0.921753         2.399882
 H         3.801577        -2.566930         1.213357
 H         4.683898        -1.988411        -0.323691
 H         5.125320        -1.527672         1.225278
 H        -0.264458         0.200271         1.217729
 H        -0.591968         0.430690        -0.426658
 H        -0.272216        -1.235772         0.212431
 H         2.266629         0.194303        -2.098197
 H         1.985148         1.689074        -1.340417
 H         4.602734         1.013095        -0.495284
 H         3.395927         0.912014         2.838916
