19
Iteration:   867
 C         4.392867        -1.899239         0.768955
 C         3.389248        -0.759092         0.442944
 O         2.209782        -1.375069         0.020313
 C         1.550603        -0.079181         0.068357
 C         0.025399        -0.183605         0.229337
 C         2.089889         0.613469        -1.170475
 C         3.398581         0.615036        -0.347271
 C         2.635291         0.510462         1.004904
 O         2.470797         1.216958         2.146539
 H         3.680401        -2.756698         1.112033
 H         4.906221        -2.206837        -0.109455
 H         5.078195        -1.686047         1.622020
 H        -0.342720        -0.590554         1.126663
 H        -0.356596         0.809694         0.174563
 H        -0.435340        -0.756124        -0.548674
 H         1.961122         0.159831        -2.257551
 H         1.788004         1.659193        -1.130580
 H         4.442848         1.054919        -0.648288
 H         3.367987         1.474781         2.463523
