19
Iteration:  4600
 C         4.490336        -1.666110         0.759724
 C         3.259765        -0.821935         0.536827
 O         1.992915        -1.468712         0.211652
 C         1.436729        -0.155123         0.057622
 C        -0.017508         0.082577         0.137612
 C         2.077803         0.441586        -1.202927
 C         3.358581         0.418924        -0.387840
 C         2.633653         0.476829         0.980296
 O         2.852369         1.318588         2.052217
 H         4.817419        -1.807985        -0.248250
 H         5.296016        -0.983660         1.235182
 H         4.488263        -2.464513         1.475741
 H        -0.655278        -0.180545        -0.742987
 H        -0.383792        -0.640941         0.829013
 H        -0.281187         1.154948         0.582320
 H         1.983645        -0.374323        -1.941517
 H         1.831132         1.338900        -1.690254
 H         4.412043         0.822791        -0.659197
 H         2.857290         0.660473         2.799777
