19
Iteration:   326
 C         4.373097        -1.634821         0.874869
 C         3.191280        -0.883471         0.428220
 O         1.979930        -1.356144        -0.217774
 C         1.407679         0.007360        -0.120130
 C        -0.037098        -0.094718         0.083949
 C         2.335002         0.958725        -1.026510
 C         3.462493         0.512409        -0.155783
 C         2.529068         0.291778         1.028565
 O         2.807854         0.826822         2.281769
 H         4.163509        -2.515770         1.579454
 H         4.902670        -2.142903         0.001184
 H         5.149837        -0.950164         1.242762
 H        -0.622305         0.770900         0.463063
 H        -0.702469        -0.356656        -0.870311
 H        -0.310567        -0.953606         0.802828
 H         2.213342         0.666195        -2.202463
 H         2.249005         1.985966        -0.822698
 H         4.518831         0.978279        -0.203426
 H         3.452354         1.527826         2.059165
