19
Iteration:    36
 C         4.240881        -1.918821         0.674362
 C         3.285084        -0.843841         0.452367
 O         2.090744        -1.326597        -0.087029
 C         1.533237         0.069396        -0.092355
 C         0.111177        -0.076960         0.362235
 C         2.408528         0.779929        -1.215566
 C         3.485081         0.607676        -0.242621
 C         2.630133         0.433485         0.974850
 O         2.437334         1.025076         2.253177
 H         3.867666        -2.742521         1.396395
 H         4.599562        -2.338647        -0.307954
 H         5.071100        -1.415628         1.070620
 H         0.094311         0.194798         1.519817
 H        -0.634492         0.550357        -0.183796
 H        -0.207521        -1.110709         0.262966
 H         2.450024         0.133711        -2.249953
 H         2.148129         1.755816        -1.277911
 H         4.251864         1.323511        -0.292585
 H         2.341056         0.311261         2.872560
