19
Iteration:  2186
 C         4.463550        -1.634328         1.093185
 C         3.232520        -0.894060         0.550914
 O         1.885549        -1.513684         0.247321
 C         1.353130        -0.074840         0.132864
 C        -0.038409         0.127294         0.473837
 C         1.925378         0.394944        -1.157093
 C         3.325449         0.200331        -0.621459
 C         2.761844         0.484832         0.763166
 O         3.166715         1.419799         1.707160
 H         4.509920        -1.312297         2.132294
 H         4.107880        -2.743813         1.037360
 H         5.455788        -1.456854         0.603253
 H        -0.361585        -0.370678         1.381871
 H        -0.257494         1.238575         0.457432
 H        -0.668477        -0.347565        -0.293416
 H         1.540348        -0.343293        -1.884194
 H         1.581817         1.406189        -1.316847
 H         4.340208         0.408006        -1.005494
 H         3.404345         2.210583         1.219123
