19
Iteration:  1942charge 0 multiplicity 1
 C         4.401657        -1.563565         0.975409
 C         3.264519        -0.798779         0.451096
 O         1.992591        -1.474955         0.286464
 C         1.361624        -0.116592         0.026227
 C        -0.071594         0.044954         0.393738
 C         1.991030         0.380769        -1.245783
 C         3.405050         0.374322        -0.582953
 C         2.673278         0.487080         0.846960
 O         3.062221         1.197749         1.953171
 H         3.771390        -2.368168         1.446890
 H         5.138558        -1.944613         0.332336
 H         4.829754        -0.955243         1.823064
 H        -0.280404         0.412869         1.423876
 H        -0.345554         0.953966        -0.119611
 H        -0.743612        -0.777844         0.154623
 H         1.917965        -0.180895        -2.173394
 H         1.536031         1.357243        -1.414684
 H         4.468183         0.569646        -0.875040
 H         3.294960         2.100749         1.624477
