19
Iteration:  2492
 C         4.232890        -1.890563         1.080606
 C         3.365081        -0.854855         0.533712
 O         2.018378        -1.419818         0.370611
 C         1.453819        -0.162294         0.199293
 C         0.025434         0.022295         0.638113
 C         1.894917         0.356648        -1.238913
 C         3.322192         0.300669        -0.606445
 C         2.763290         0.478755         0.767904
 O         3.033886         1.677904         1.410332
 H         3.583216        -2.617070         1.483547
 H         4.902906        -2.305577         0.299995
 H         4.869818        -1.565373         1.864261
 H        -0.137867        -0.185848         1.734156
 H        -0.081617         1.057949         0.278539
 H        -0.534463        -0.691414         0.000651
 H         1.547207        -0.126896        -2.163918
 H         1.762395         1.467085        -1.353399
 H         4.225362         0.646792        -1.118663
 H         3.108726         1.634804         2.406201
