19
Iteration:  3302
 C         4.237536        -1.770420         1.235718
 C         3.215455        -0.880014         0.591714
 O         1.902077        -1.336531         0.243917
 C         1.384059        -0.046707         0.031347
 C        -0.008462        -0.098033         0.543310
 C         2.074994         0.325275        -1.350187
 C         3.411766         0.318420        -0.621181
 C         2.812731         0.539382         0.703751
 O         3.071269         1.488873         1.776961
 H         5.265411        -1.381546         1.010717
 H         4.229762        -1.800833         2.355281
 H         4.056688        -2.746886         0.743886
 H         0.023058        -0.644179         1.460603
 H        -0.524674         0.881300         0.766739
 H        -0.599213        -0.719748        -0.183757
 H         1.787044        -0.505576        -2.042945
 H         1.851100         1.269019        -1.860292
 H         4.292463         0.651558        -1.087803
 H         3.277163         2.354398         1.317820
