19
Iteration:  2221charge 0 multiplicity 1
 C         4.418812        -1.663874         0.906474
 C         3.221847        -0.808892         0.443440
 O         1.982689        -1.497111         0.530621
 C         1.440290        -0.103130         0.093505
 C        -0.039498         0.300233         0.475898
 C         1.967416         0.208486        -1.249503
 C         3.338139         0.282628        -0.672291
 C         2.799570         0.533048         0.721516
 O         2.960797         1.332591         1.855052
 H         4.130281        -2.116365         1.954385
 H         4.399487        -2.658286         0.264196
 H         5.431253        -1.187133         0.892853
 H        -0.111403         0.453750         1.562584
 H        -0.320292         1.252979         0.032941
 H        -0.717750        -0.408159         0.041431
 H         1.849606        -0.729525        -1.835581
 H         1.444760         1.001387        -1.843617
 H         4.341221         0.378131        -1.025832
 H         3.465230         2.103510         1.596705
