19
Iteration:   164charge 0 multiplicity 1
 C         4.234557        -1.817060         0.843666
 C         3.348573        -0.778161         0.334095
 O         2.105825        -1.334763        -0.171331
 C         1.484357         0.033954         0.080471
 C        -0.133019        -0.044399        -0.046327
 C         2.092106         0.781075        -1.098938
 C         3.470866         0.662440        -0.235498
 C         2.787404         0.376758         1.075831
 O         2.769759         0.860486         2.346540
 H         3.550158        -2.525503         1.319811
 H         4.699074        -2.305854        -0.027529
 H         5.038733        -1.455829         1.462868
 H        -0.354896         0.752167        -0.659833
 H        -0.299862        -0.987729        -0.539581
 H        -0.610516        -0.014545         0.893024
 H         1.989547         0.394499        -2.066189
 H         1.790993         2.005306        -0.996113
 H         4.357960         1.246161        -0.285464
 H         3.181426         0.344316         3.088385
