19
Iteration:  1915
 C         4.467880        -1.695750         0.957908
 C         3.309859        -0.863705         0.466119
 O         2.018309        -1.491526         0.271845
 C         1.447400        -0.076349         0.143593
 C         0.029732         0.179574         0.407541
 C         1.932666         0.264187        -1.286110
 C         3.340080         0.499977        -0.629007
 C         2.712317         0.519744         0.811398
 O         2.887109         1.221833         2.012427
 H         4.096235        -2.162433         1.874144
 H         4.753520        -2.551019         0.233154
 H         5.369642        -1.133386         1.152955
 H        -0.523582         0.109265         1.355693
 H        -0.094691         1.293822         0.120208
 H        -0.544307        -0.403500        -0.403421
 H         1.886358        -0.481228        -2.105890
 H         1.394998         1.171846        -1.643038
 H         4.319739         0.786710        -0.965816
 H         2.746291         2.186154         1.815595
