19
Iteration:   144
 C         4.300194        -1.810504         0.775218
 C         3.258802        -0.715503         0.413367
 O         2.036749        -1.252097        -0.099507
 C         1.415551         0.029733        -0.003844
 C        -0.101870        -0.087816        -0.071055
 C         2.207711         0.768561        -1.080460
 C         3.467381         0.627209        -0.323985
 C         2.649929         0.471528         1.073284
 O         2.850508         0.808094         2.463411
 H         3.839074        -2.630455         1.387102
 H         4.719450        -2.293845        -0.111729
 H         4.993942        -1.441235         1.441159
 H        -0.564319         0.650436        -0.727293
 H        -0.206478        -1.025751        -0.560192
 H        -0.514684        -0.110166         0.890215
 H         2.260240         0.198027        -1.964157
 H         1.987600         1.840191        -1.397065
 H         4.502274         0.995963        -0.583066
 H         3.178667        -0.028201         2.854137
