19
Iteration:   537charge 0 multiplicity 1
 C         4.322451        -1.794415         0.825159
 C         3.254802        -0.845158         0.393799
 O         2.011090        -1.344229        -0.179038
 C         1.507734        -0.071579        -0.060105
 C         0.009305        -0.129595         0.155301
 C         2.207372         0.879376        -1.033578
 C         3.478588         0.663874        -0.186111
 C         2.637358         0.322180         0.978668
 O         2.687893         1.020286         2.194432
 H         4.073212        -2.682445         1.453557
 H         4.778488        -2.354143         0.028236
 H         5.164831        -1.247261         1.346696
 H        -0.178681        -0.711145         1.105550
 H        -0.431703         0.892359         0.353848
 H        -0.537243        -0.694866        -0.623045
 H         2.289997         0.432467        -2.051609
 H         1.758136         1.957056        -0.944745
 H         4.362391         1.227583        -0.174208
 H         3.284391         0.510220         2.803940
