19
Iteration:  2247charge 0 multiplicity 1
 C         4.429269        -1.705553         0.789152
 C         3.176565        -0.842745         0.572497
 O         1.883999        -1.305413         0.427561
 C         1.466709        -0.024879         0.062683
 C         0.096975         0.247297         0.654906
 C         2.090001         0.058882        -1.366819
 C         3.324265         0.122085        -0.629149
 C         2.727318         0.570307         0.737668
 O         2.929494         1.387397         1.879890
 H         4.203277        -2.505886         1.534962
 H         4.797583        -2.263018        -0.030422
 H         5.212235        -1.086280         1.266167
 H         0.088426         0.579072         1.681725
 H        -0.344323         1.083467         0.100331
 H        -0.534711        -0.644721         0.428913
 H         1.862887        -0.848493        -1.959291
 H         1.872870         0.930578        -2.018107
 H         4.295918         0.544105        -0.964425
 H         2.561123         2.238747         1.627635
