19
Iteration:   678
 C         4.462009        -1.817784         0.797798
 C         3.369682        -0.904154         0.433055
 O         2.126704        -1.450911        -0.170146
 C         1.394555        -0.119766        -0.016246
 C        -0.027800        -0.147542         0.195846
 C         2.151865         0.888332        -0.943590
 C         3.511344         0.555319        -0.219042
 C         2.547346         0.348323         0.983737
 O         2.640986         1.250067         2.040268
 H         3.966653        -2.591279         1.454120
 H         4.756932        -2.287818        -0.173784
 H         5.182080        -1.288381         1.515264
 H        -0.484590         0.603294        -0.466505
 H        -0.412732        -1.154987         0.343358
 H        -0.088007         0.491754         1.059051
 H         1.870948         0.790056        -2.043974
 H         1.857923         1.821742        -0.527979
 H         4.552805         0.977564        -0.213769
 H         2.373764         0.658739         2.770580
