19
Iteration:  2742charge 0 multiplicity 1
 C         4.445217        -1.496156         0.957937
 C         3.205185        -0.876524         0.526729
 O         1.909617        -1.413526         0.496298
 C         1.365117        -0.031782         0.053445
 C        -0.111176         0.072684         0.453102
 C         1.973442         0.105310        -1.295313
 C         3.278720         0.273622        -0.593808
 C         2.749378         0.500943         0.826381
 O         3.173990         1.476507         1.673415
 H         5.270228        -1.202149         0.304050
 H         4.857125        -1.436205         2.020309
 H         4.414230        -2.570639         0.729287
 H        -0.093760        -0.608461         1.245167
 H        -0.121992         1.036958         0.863350
 H        -0.640529        -0.191571        -0.405057
 H         1.750208        -0.804315        -1.844466
 H         1.853550         0.962461        -1.984101
 H         4.327944         0.334544        -1.005519
 H         2.939305         1.346467         2.649409
