19
Iteration:  2259charge 0 multiplicity 1
 C         4.430181        -1.738297         0.851322
 C         3.233657        -0.904027         0.472841
 O         1.827067        -1.434377         0.444968
 C         1.406486         0.048286         0.065007
 C         0.082807         0.257104         0.650254
 C         2.050945         0.162664        -1.373912
 C         3.428027         0.187854        -0.563845
 C         2.779996         0.513444         0.773826
 O         2.916626         1.471590         1.781483
 H         4.130775        -2.569583         1.464964
 H         4.841496        -2.013726        -0.071352
 H         5.202841        -1.138773         1.371725
 H         0.350547         0.393678         1.698440
 H        -0.587435         1.057488         0.264724
 H        -0.494914        -0.698275         0.703147
 H         1.975480        -0.824924        -1.856238
 H         1.807676         0.977978        -2.038318
 H         4.490059         0.191152        -0.930184
 H         2.203248         2.152152         1.696218
