19
Iteration:  3246
 C         4.470428        -1.811995         0.928769
 C         3.201198        -0.966351         0.676613
 O         1.934153        -1.469866         0.537362
 C         1.421150        -0.099101         0.135749
 C        -0.061366         0.164282         0.329088
 C         2.020861         0.283473        -1.288439
 C         3.371519         0.270481        -0.552284
 C         2.732155         0.475455         0.791967
 O         3.018020         1.640230         1.670864
 H         5.175150        -1.333062         1.661024
 H         4.077361        -2.791974         1.373951
 H         5.117160        -2.119252         0.069836
 H        -0.505745        -0.695805         0.812292
 H        -0.322095         1.087212         0.905424
 H        -0.556428         0.264670        -0.640559
 H         1.781788        -0.540587        -1.988819
 H         1.579879         1.268261        -1.544554
 H         4.409542         0.398297        -0.874321
 H         2.906257         2.387564         1.078753
