19
Iteration:  1631charge 0 multiplicity 1
 C         4.448248        -1.671559         1.013206
 C         3.345667        -0.846071         0.489170
 O         2.075644        -1.498168         0.080156
 C         1.440825        -0.186504         0.080912
 C        -0.071974         0.029608         0.269494
 C         1.964090         0.463782        -1.197087
 C         3.330204         0.443490        -0.455270
 C         2.679662         0.453387         0.901798
 O         2.912338         1.410393         1.927463
 H         3.939679        -2.428405         1.642266
 H         5.106457        -2.332034         0.312500
 H         5.037472        -1.021870         1.698132
 H        -0.451549        -0.984284         0.135831
 H        -0.111014         0.427210         1.294062
 H        -0.489475         0.759959        -0.462445
 H         1.610219        -0.096800        -2.099583
 H         1.758245         1.554712        -1.329747
 H         4.279278         0.848345        -0.856108
 H         2.644213         0.888414         2.740098
