19
Iteration:  4292
 C         4.354603        -1.649250         0.977404
 C         3.298127        -0.785044         0.463456
 O         1.977062        -1.449934         0.107784
 C         1.482191        -0.078797         0.057938
 C        -0.032735        -0.054449         0.455877
 C         2.126125         0.459167        -1.235435
 C         3.514704         0.357716        -0.509370
 C         2.616936         0.466952         0.866033
 O         2.831390         1.292256         1.953782
 H         3.877736        -2.686879         0.748109
 H         5.333892        -1.644542         0.538484
 H         4.513853        -1.525807         2.079237
 H        -0.555710        -0.645051        -0.256043
 H        -0.123701        -0.633113         1.402940
 H        -0.484967         0.929636         0.594953
 H         1.922656        -0.103017        -2.185897
 H         1.829390         1.564400        -1.413602
 H         4.490609         0.880968        -0.639199
 H         2.709463         2.228828         1.663304
