19
Iteration:  3059
 C         4.394268        -1.755723         0.884331
 C         3.277444        -0.824595         0.571359
 O         1.987147        -1.369199         0.594664
 C         1.395297        -0.024397         0.190838
 C        -0.085172         0.151263         0.320674
 C         2.024206         0.121197        -1.291586
 C         3.322496         0.219292        -0.584204
 C         2.771705         0.510638         0.813339
 O         2.932306         1.553813         1.694233
 H         5.312715        -1.466131         0.470625
 H         4.585258        -2.022055         1.905556
 H         4.173735        -2.646926         0.357496
 H        -0.413164         0.328225         1.383862
 H        -0.229411         0.879774        -0.467887
 H        -0.619374        -0.700854        -0.075476
 H         2.105306        -0.769222        -1.852306
 H         1.767931         1.079936        -1.700045
 H         4.312603         0.413128        -0.988343
 H         3.850348         1.632916         1.929776
