19
Iteration:  2508charge 0 multiplicity 1
 C         4.390089        -1.848809         1.055719
 C         3.266476        -0.907956         0.412992
 O         1.958211        -1.470826         0.439224
 C         1.393976        -0.073184         0.169329
 C        -0.022043         0.054987         0.487073
 C         1.908489         0.301752        -1.184020
 C         3.310150         0.244045        -0.653985
 C         2.792451         0.524868         0.828870
 O         3.149706         1.702313         1.496976
 H         3.761920        -2.690641         1.537782
 H         5.075791        -2.289783         0.343453
 H         4.863497        -1.259880         1.917970
 H        -0.098419        -0.261660         1.518684
 H        -0.464630         1.029610         0.631723
 H        -0.752943        -0.516977        -0.124491
 H         1.680512        -0.473373        -1.933575
 H         1.465534         1.250661        -1.440453
 H         4.193639         0.870182        -0.847035
 H         2.852302         1.541726         2.440681
