19
Iteration:  1826charge 0 multiplicity 1
 C         4.360059        -1.756289         1.064586
 C         3.373757        -0.834274         0.354298
 O         2.109485        -1.460085         0.085456
 C         1.460154        -0.102931         0.141067
 C        -0.079022        -0.041602         0.475622
 C         1.946031         0.410941        -1.173839
 C         3.330111         0.373727        -0.533244
 C         2.731202         0.489337         0.886107
 O         2.842027         1.454122         1.868211
 H         5.163778        -1.342881         1.635111
 H         3.607485        -2.208979         1.703605
 H         4.668895        -2.524828         0.386076
 H        -0.594375        -0.968356         0.566293
 H        -0.024941         0.530787         1.393197
 H        -0.376619         0.549849        -0.361307
 H         1.915320        -0.142482        -2.135550
 H         1.751058         1.457245        -1.320799
 H         4.276193         0.808482        -0.905995
 H         3.687568         1.912095         1.631704
