19
Iteration:  4475
 C         4.272874        -1.842492         0.941158
 C         3.254927        -0.819689         0.548598
 O         1.988215        -1.443040         0.152152
 C         1.501045        -0.112798         0.001878
 C        -0.010659        -0.181606         0.372233
 C         2.127372         0.565894        -1.226986
 C         3.408846         0.541086        -0.469609
 C         2.781219         0.529464         0.828910
 O         2.798500         1.433214         1.908280
 H         4.380379        -2.514383         0.046230
 H         5.184363        -1.308418         1.156889
 H         4.054179        -2.505324         1.880603
 H        -0.315297        -1.223697         0.151936
 H         0.091677        -0.118721         1.521972
 H        -0.821211         0.507108         0.216057
 H         2.094126         0.134077        -2.211919
 H         1.873620         1.652710        -1.171829
 H         4.468698         0.776763        -0.833331
 H         3.137622         1.052563         2.743662
