19
Iteration:  1161
 C         4.366701        -1.663574         1.052235
 C         3.373101        -0.848655         0.319720
 O         2.143575        -1.505398        -0.110116
 C         1.421514        -0.101806        -0.000098
 C         0.019100        -0.047740         0.243126
 C         2.053827         0.850504        -0.999411
 C         3.435095         0.496719        -0.411050
 C         2.678364         0.324470         0.901103
 O         2.672730         1.037513         2.106140
 H         3.907858        -1.948092         1.998992
 H         4.723450        -2.438646         0.516126
 H         5.073093        -0.908798         1.229807
 H        -0.235088         0.298181         1.255027
 H        -0.489461         0.554965        -0.534288
 H        -0.401356        -1.069194         0.110396
 H         1.869379         0.611841        -2.062471
 H         1.659802         1.758552        -0.770704
 H         4.371322         0.994223        -0.516555
 H         3.055551         1.937564         1.992164
