19
Iteration:  3653
 C         4.173045        -1.865242         1.032931
 C         3.352517        -0.803727         0.412331
 O         1.999520        -1.372002         0.060986
 C         1.484173        -0.046425         0.091002
 C        -0.128479        -0.272826         0.327331
 C         2.093923         0.745314        -1.157105
 C         3.434331         0.413613        -0.474533
 C         2.811442         0.489928         0.902328
 O         2.957882         1.255973         1.965552
 H         5.243918        -1.757990         0.777926
 H         3.971640        -1.853622         2.104524
 H         3.769067        -2.666323         0.428014
 H        -0.355182         0.331684         1.199353
 H        -0.835531         0.094804        -0.468108
 H        -0.310913        -1.423075         0.545313
 H         1.972051         0.643196        -2.273236
 H         2.012851         1.814091        -0.986122
 H         4.306875         1.002917        -0.670348
 H         3.030437         2.181883         1.735344
