19
Iteration:  1318
 C         4.384459        -1.733526         0.890796
 C         3.334247        -0.822632         0.429346
 O         2.069721        -1.402834         0.056616
 C         1.459080        -0.091079        -0.046760
 C         0.046467        -0.101733         0.425496
 C         2.183685         0.578859        -1.266192
 C         3.504223         0.589334        -0.360442
 C         2.666802         0.462232         0.877794
 O         2.478894         1.148542         2.096773
 H         3.994065        -2.730105         0.939176
 H         5.276893        -1.901822         0.169756
 H         4.915122        -1.564832         1.854199
 H         0.001409        -1.181826         0.769968
 H        -0.041011         0.473642         1.386323
 H        -0.688761         0.144394        -0.407784
 H         2.251851         0.063977        -2.204596
 H         1.855606         1.652023        -1.403533
 H         4.354779         1.085905        -0.742749
 H         3.107983         1.889602         2.213828
