19
Iteration:  2929
 C         4.412545        -1.560469         1.071425
 C         3.239531        -0.853661         0.487847
 O         1.880240        -1.464434         0.406681
 C         1.358378        -0.079516         0.172799
 C        -0.167842         0.068440         0.596170
 C         2.015779         0.184342        -1.374363
 C         3.387859         0.168138        -0.609873
 C         2.794269         0.588601         0.721569
 O         3.122447         1.559499         1.641283
 H         4.877677        -0.975846         1.841004
 H         4.078715        -2.512113         1.468415
 H         5.112178        -1.727057         0.278108
 H        -0.411861        -0.208864         1.670656
 H        -0.650108         1.046612         0.582050
 H        -0.662887        -0.639999        -0.067063
 H         1.753137        -0.706484        -1.966283
 H         1.865741         1.031746        -2.046621
 H         4.336935         0.178351        -1.062484
 H         3.936927         1.255411         2.173531
