19
Iteration:  1376charge 0 multiplicity 1
 C         4.388442        -1.615955         1.010612
 C         3.242527        -0.881447         0.431813
 O         2.056865        -1.477198        -0.000761
 C         1.446456        -0.135927        -0.001854
 C        -0.076990        -0.137577         0.330750
 C         2.148424         0.687866        -1.266650
 C         3.409492         0.574795        -0.323381
 C         2.622126         0.401973         0.924506
 O         2.871890         1.135473         2.073745
 H         4.802712        -2.328321         0.263557
 H         5.155851        -0.860660         1.163299
 H         4.069486        -2.181086         1.877921
 H        -0.501176        -1.080329         0.559330
 H        -0.360153         0.615080         1.041145
 H        -0.602907         0.185002        -0.537847
 H         2.315785         0.101987        -2.184472
 H         1.849065         1.687482        -1.599878
 H         4.440270         1.005245        -0.453062
 H         2.573309         2.028185         1.864865
