19
Iteration:  1364
 C         4.402555        -1.736393         1.020005
 C         3.335187        -0.805149         0.407452
 O         2.078229        -1.445093        -0.014584
 C         1.431392        -0.075038         0.043693
 C        -0.012657        -0.104578         0.277727
 C         2.107830         0.616186        -1.209408
 C         3.392428         0.594352        -0.429731
 C         2.688667         0.414794         0.903306
 O         2.745604         1.135732         2.092132
 H         4.508460        -2.679314         0.462010
 H         5.393101        -1.278978         1.211502
 H         4.082620        -1.964624         2.052124
 H        -0.278735        -1.106445         0.616958
 H        -0.178881         0.480660         1.189872
 H        -0.579748         0.196143        -0.610800
 H         1.953375         0.055095        -2.117453
 H         1.599047         1.610949        -1.191229
 H         4.335571         1.123827        -0.469838
 H         2.607632         2.097048         1.884508
