19
Iteration:  4935charge 0 multiplicity 1
 C         4.621024        -1.512117         0.835824
 C         3.258407        -0.837640         0.416941
 O         1.919995        -1.431434         0.195803
 C         1.418347        -0.006817         0.036936
 C        -0.066285         0.177636         0.170373
 C         2.056054         0.496723        -1.200522
 C         3.423736         0.415789        -0.502317
 C         2.655917         0.357056         0.987106
 O         2.814919         1.011641         2.159397
 H         5.448858        -1.741977         0.138878
 H         5.058488        -0.755890         1.485160
 H         4.420279        -2.366035         1.468320
 H        -0.614301        -0.696327        -0.242722
 H        -0.278301         0.346105         1.209952
 H        -0.422177         1.013258        -0.543360
 H         1.987918        -0.202859        -2.021734
 H         1.640484         1.481707        -1.564261
 H         4.362786         0.573230        -0.993529
 H         2.990100         0.414237         2.885580
