19
Iteration:   824
 C         4.388205        -1.715488         0.911282
 C         3.254935        -0.789396         0.390486
 O         2.070968        -1.398407        -0.087358
 C         1.508254        -0.085423        -0.026647
 C         0.014972        -0.207009         0.317382
 C         2.184363         0.773928        -1.192216
 C         3.451372         0.598658        -0.280196
 C         2.614751         0.370614         0.906207
 O         2.586625         1.088363         2.141545
 H         3.954076        -2.292639         1.737128
 H         4.938544        -2.247814         0.215778
 H         5.098835        -0.991454         1.248874
 H        -0.170812         0.107177         1.286026
 H        -0.603209         0.335385        -0.307265
 H        -0.116585        -1.254636         0.301855
 H         2.173983         0.247185        -2.122457
 H         1.943069         1.816744        -1.268433
 H         4.515133         1.049680        -0.297351
 H         3.496789         1.278536         2.446381
