19
Iteration:   955charge 0 multiplicity 1
 C         4.394297        -1.639104         1.002508
 C         3.396402        -0.736979         0.412935
 O         2.133143        -1.483340         0.046402
 C         1.459338        -0.151072         0.068267
 C        -0.064277         0.011810         0.237224
 C         2.092511         0.608522        -1.235270
 C         3.411602         0.713236        -0.460718
 C         2.690669         0.450119         0.867084
 O         2.692576         0.887731         2.171148
 H         4.068126        -2.036598         2.061193
 H         4.576971        -2.541701         0.417672
 H         5.370055        -1.201335         1.213945
 H        -0.458928        -0.913702         0.546161
 H        -0.151850         0.683503         1.064061
 H        -0.512226         0.513361        -0.605231
 H         2.071274        -0.017041        -2.206367
 H         1.640400         1.574702        -1.466182
 H         4.361859         1.197354        -0.915682
 H         2.028092         1.620800         2.137789
