19
Iteration:  4881
 C         4.400940        -1.848469         0.875698
 C         3.326420        -0.829887         0.441298
 O         2.002155        -1.428341         0.004533
 C         1.463653        -0.091538         0.062425
 C         0.011768        -0.051600         0.418209
 C         2.109968         0.582853        -1.286194
 C         3.396264         0.547441        -0.346943
 C         2.685303         0.431518         0.947375
 O         2.784340         1.307825         2.003635
 H         5.168333        -1.902233         0.143141
 H         4.875414        -1.496208         1.796124
 H         3.922933        -2.741222         1.186629
 H        -0.527369        -0.764260        -0.219547
 H        -0.327253        -0.279232         1.406617
 H        -0.342378         0.987035         0.119357
 H         2.103208         0.042174        -2.249516
 H         1.927373         1.668794        -1.535261
 H         4.280500         1.117706        -0.446916
 H         2.371505         0.856707         2.750742
