19
Iteration:  3874
 C         4.425312        -1.704499         0.746182
 C         3.274901        -0.815531         0.493904
 O         1.996483        -1.436228         0.230018
 C         1.410914        -0.098911         0.091306
 C        -0.169204        -0.006909        -0.004333
 C         2.114211         0.465241        -1.211080
 C         3.383627         0.560308        -0.343442
 C         2.683796         0.477281         0.966187
 O         2.994452         1.149131         2.208792
 H         4.606120        -1.992923         1.771367
 H         4.306734        -2.706277         0.204162
 H         5.377408        -1.226368         0.469283
 H        -0.610208         1.047751        -0.380036
 H        -0.594514        -0.844775        -0.641053
 H        -0.691303        -0.210439         0.953433
 H         2.064423        -0.145007        -2.127696
 H         1.875949         1.532528        -1.399598
 H         4.345447         0.941371        -0.512128
 H         2.753448         2.109140         2.224301
