19
Iteration:   908charge 0 multiplicity 1
 C         4.573340        -1.534061         0.734387
 C         3.234624        -0.956014         0.550369
 O         2.048844        -1.451732        -0.059160
 C         1.356130        -0.075043        -0.032458
 C        -0.057450        -0.041611         0.308440
 C         2.295390         0.617077        -1.155582
 C         3.471699         0.397428        -0.234354
 C         2.597312         0.363952         0.982437
 O         2.535496         1.196132         2.117037
 H         4.661506        -2.429771         1.400804
 H         5.008136        -1.826909        -0.231169
 H         5.231974        -0.783765         1.264527
 H        -0.264802        -1.038522         0.801117
 H        -0.295492         0.851513         0.964378
 H        -0.611170         0.130351        -0.651092
 H         2.379349         0.209484        -2.195872
 H         1.902143         1.609196        -1.221592
 H         4.510865         0.671542        -0.413469
 H         3.224314         1.866110         1.951682
