19
Iteration:   375charge 0 multiplicity 1
 C         4.169717        -1.900964         0.876165
 C         3.385835        -0.686012         0.344812
 O         2.203709        -1.302251        -0.194529
 C         1.475661         0.020470         0.076837
 C        -0.015068        -0.079513         0.086543
 C         2.108359         0.818777        -1.109254
 C         3.433263         0.656803        -0.319984
 C         2.705055         0.407816         1.013540
 O         2.772769         0.786739         2.364744
 H         3.423163        -2.623535         1.225439
 H         4.484161        -2.498988         0.020388
 H         5.076943        -1.644145         1.530078
 H        -0.551479         0.725961        -0.439957
 H        -0.374855        -0.827061        -0.603566
 H        -0.416389        -0.113964         1.128866
 H         2.139664         0.379400        -1.990380
 H         1.759750         1.907066        -1.047529
 H         4.383054         1.117386        -0.361056
 H         2.079469         1.414057         2.623315
