19
Iteration:  2701charge 0 multiplicity 1
 C         4.440411        -1.754476         0.912828
 C         3.319958        -0.842471         0.549521
 O         2.003225        -1.437095         0.555781
 C         1.371977        -0.113716         0.176521
 C        -0.050627         0.054370         0.347138
 C         1.921896         0.273485        -1.219219
 C         3.251505         0.251338        -0.563037
 C         2.785876         0.518220         0.825314
 O         3.064033         1.608322         1.551221
 H         5.375094        -1.118764         1.029324
 H         4.159817        -2.329277         1.907324
 H         4.621305        -2.584286         0.181765
 H        -0.400379        -0.200676         1.382479
 H        -0.443373         1.064960         0.339932
 H        -0.740702        -0.512317        -0.338888
 H         1.734210        -0.467020        -2.053136
 H         1.501195         1.305890        -1.441305
 H         4.204649         0.453835        -1.124849
 H         3.193991         1.459131         2.486584
