19
Iteration:  4925
 C         4.597905        -1.466898         0.843385
 C         3.220004        -0.872756         0.433525
 O         1.925667        -1.434239         0.149757
 C         1.420844        -0.052736         0.114634
 C        -0.031089         0.163240         0.186431
 C         2.135097         0.481321        -1.215990
 C         3.354086         0.360430        -0.484076
 C         2.674779         0.430015         0.903089
 O         2.833195         1.037553         2.178227
 H         5.030556        -1.465405        -0.126165
 H         5.103619        -0.857079         1.596124
 H         4.498353        -2.472248         1.198184
 H        -0.584751        -0.752529        -0.075307
 H        -0.454466         0.426731         1.122900
 H        -0.283498         1.107938        -0.438865
 H         2.113126        -0.203404        -2.098112
 H         1.709615         1.513962        -1.485208
 H         4.367358         0.628992        -0.723121
 H         2.661348         0.343842         2.847063
