19
Iteration:  3096
 C         4.369498        -1.767009         1.009133
 C         3.234473        -0.821485         0.531619
 O         1.943663        -1.378690         0.487572
 C         1.395392        -0.095299         0.130750
 C        -0.058620         0.031266         0.327329
 C         2.017143         0.220196        -1.247170
 C         3.333318         0.222076        -0.594986
 C         2.754783         0.585453         0.821611
 O         3.145706         1.530593         1.749557
 H         5.250301        -1.683192         0.345612
 H         4.581004        -1.795390         2.088342
 H         3.878326        -2.726112         0.769225
 H        -0.446468         0.584312         1.167748
 H        -0.441339         0.684657        -0.514787
 H        -0.499006        -0.994560         0.244427
 H         1.767631        -0.521495        -2.054083
 H         1.653862         1.157213        -1.664737
 H         4.348870         0.454777        -0.978588
 H         2.702165         2.355669         1.505575
