19
Iteration:  3406
 C         4.405028        -1.752724         0.913486
 C         3.205813        -0.809882         0.574881
 O         1.923295        -1.414288         0.365864
 C         1.400267        -0.023621        -0.016940
 C        -0.005298         0.111776         0.414134
 C         2.150923         0.279608        -1.320039
 C         3.428146         0.328479        -0.549284
 C         2.751983         0.581409         0.795071
 O         2.866905         1.287970         1.953772
 H         4.231888        -2.644757         0.304314
 H         5.349121        -1.214737         0.673411
 H         4.472141        -2.045230         1.967537
 H        -0.202060         1.228049         0.702975
 H        -0.677328        -0.210633        -0.419059
 H        -0.159331        -0.549340         1.310465
 H         2.184412        -0.619841        -1.951653
 H         1.755477         1.176372        -1.873935
 H         4.390678         0.543653        -0.909871
 H         2.733067         2.218985         1.784613
