19
Iteration:  3009charge 0 multiplicity 1
 C         4.346694        -1.634831         1.166501
 C         3.267128        -0.862024         0.484234
 O         1.943502        -1.492437         0.316634
 C         1.442380        -0.111667         0.115414
 C         0.113346         0.232214         0.746997
 C         2.024516         0.203423        -1.382273
 C         3.381195         0.175665        -0.623772
 C         2.707831         0.469905         0.696513
 O         2.954783         1.542340         1.531205
 H         5.089394        -0.956662         1.712617
 H         3.748235        -2.296725         1.905212
 H         5.009817        -2.372682         0.577227
 H         0.000438        -0.343923         1.677872
 H        -0.092385         1.331971         0.843128
 H        -0.651547        -0.166705         0.043460
 H         1.550999        -0.654369        -1.997642
 H         1.762795         1.254992        -1.610618
 H         4.485256         0.465416        -0.782991
 H         2.100164         1.711979         2.034794
