19
Iteration:   650charge 0 multiplicity 1
 C         4.457035        -1.801526         0.789493
 C         3.336479        -0.855645         0.347947
 O         2.141192        -1.417470        -0.149968
 C         1.476573        -0.006359         0.065922
 C         0.003769        -0.022536         0.199689
 C         2.160437         0.718000        -1.077967
 C         3.439506         0.639796        -0.275653
 C         2.655704         0.280842         1.031396
 O         2.495022         1.104838         2.218366
 H         3.908466        -2.485346         1.417667
 H         4.772219        -2.428965        -0.031968
 H         5.189732        -1.197619         1.301719
 H        -0.410959         0.111521        -0.828323
 H        -0.342106        -0.983310         0.618220
 H        -0.302500         0.825025         0.906723
 H         2.069085         0.243136        -2.063935
 H         1.645405         1.782901        -1.197173
 H         4.398457         1.105331        -0.494332
 H         3.299021         1.036875         2.736582
