19
Iteration:  3044charge 0 multiplicity 1
 C         4.437299        -1.719173         0.894009
 C         3.217199        -0.848427         0.625507
 O         1.854505        -1.430129         0.516030
 C         1.440480        -0.106226         0.118879
 C        -0.020291         0.185511         0.454258
 C         2.102328         0.111439        -1.299809
 C         3.418356         0.174634        -0.558586
 C         2.728678         0.590989         0.723040
 O         2.917320         1.608231         1.651115
 H         5.434270        -1.129990         0.752264
 H         4.468854        -2.035035         1.973635
 H         4.368503        -2.647058         0.203038
 H        -0.171168         0.118546         1.516079
 H        -0.491739         1.132799         0.141757
 H        -0.534295        -0.697239         0.014761
 H         1.644431        -0.617478        -2.022684
 H         1.792375         1.082127        -1.790095
 H         4.427375         0.477867        -0.821149
 H         3.583834         1.254005         2.302129
