19
Iteration:  4890charge 0 multiplicity 1
 C         4.433292        -1.724254         0.905572
 C         3.286967        -0.852147         0.390176
 O         2.004009        -1.421275         0.073710
 C         1.438991        -0.114445         0.035862
 C        -0.032916         0.035284         0.354977
 C         2.191309         0.568408        -1.265101
 C         3.324788         0.525131        -0.354806
 C         2.670550         0.398676         0.942682
 O         2.819477         1.239913         2.044793
 H         5.135514        -1.775997         0.023606
 H         5.086895        -1.474043         1.679561
 H         4.108088        -2.796656         0.891804
 H        -0.615711        -0.766991        -0.140523
 H        -0.058086        -0.125858         1.476821
 H        -0.458700         0.987065         0.000146
 H         2.236147        -0.074518        -2.126773
 H         1.826870         1.564765        -1.558478
 H         4.297668         0.925367        -0.556280
 H         2.275605         0.844015         2.731555
