19
Iteration:  4355charge 0 multiplicity 1
 C         4.308209        -1.682286         1.106392
 C         3.346552        -0.770925         0.384025
 O         2.076238        -1.431395         0.127011
 C         1.435384        -0.110744         0.051314
 C         0.094302        -0.041874         0.496917
 C         2.032013         0.516801        -1.263939
 C         3.439979         0.359054        -0.648422
 C         2.686465         0.447753         0.824798
 O         2.715519         1.335874         1.923631
 H         4.244198        -2.711706         0.755535
 H         5.281535        -1.298913         1.222065
 H         3.847541        -1.754404         2.118555
 H        -0.682124         0.109357        -0.322480
 H        -0.127532        -0.964706         1.173273
 H         0.021492         0.732979         1.253927
 H         1.807538        -0.124911        -2.076336
 H         1.706926         1.542840        -1.409116
 H         4.391298         0.862857        -0.907417
 H         3.490509         0.967716         2.385051
