19
Iteration:  2746charge 0 multiplicity 1
 C         4.460269        -1.499595         0.992794
 C         3.213179        -0.882199         0.516140
 O         1.914322        -1.414066         0.514711
 C         1.339672        -0.019044         0.033827
 C        -0.060226         0.077123         0.466672
 C         1.971933         0.114954        -1.314404
 C         3.286395         0.309150        -0.617867
 C         2.724941         0.469364         0.767124
 O         3.170409         1.447065         1.687139
 H         5.319661        -1.250404         0.299840
 H         4.807480        -1.450758         2.112386
 H         4.373159        -2.637307         0.890801
 H        -0.141502        -0.655756         1.346284
 H        -0.129276         1.089439         0.944906
 H        -0.711867        -0.175425        -0.423821
 H         1.633871        -0.854663        -1.819028
 H         1.751365         1.000590        -1.967615
 H         4.319105         0.568166        -0.920462
 H         2.955661         1.451060         2.602201
