19
Iteration:  4866charge 0 multiplicity 1
 C         4.283528        -1.887278         0.909610
 C         3.294123        -0.862849         0.428840
 O         2.130839        -1.399532        -0.043530
 C         1.484685        -0.053649         0.051795
 C         0.007285        -0.122323         0.415010
 C         2.099718         0.629684        -1.089004
 C         3.488484         0.510091        -0.417058
 C         2.672513         0.461095         0.884939
 O         2.717245         1.402818         1.957031
 H         5.072828        -2.338267         0.207132
 H         4.927759        -1.591948         1.750600
 H         3.617824        -2.818068         1.095564
 H        -0.548755        -0.696237        -0.360348
 H         0.085620        -0.726821         1.426719
 H        -0.477895         0.825554         0.458105
 H         1.854368         0.109109        -2.013124
 H         1.611592         1.590154        -1.168618
 H         4.489283         0.990974        -0.611691
 H         2.604408         0.960761         2.808590
