19
Iteration:  4575
 C         4.546499        -1.498532         0.868115
 C         3.261941        -0.880507         0.411741
 O         1.961846        -1.477073         0.167353
 C         1.433997        -0.118500         0.126914
 C        -0.147342         0.187384         0.269365
 C         2.136426         0.389693        -1.247373
 C         3.374175         0.402235        -0.424523
 C         2.756271         0.430519         0.903607
 O         2.838830         1.180853         2.056528
 H         4.886439        -2.273711         0.120863
 H         5.289603        -0.750797         0.907260
 H         4.567568        -1.711469         1.981108
 H        -0.541002         0.043993        -0.721675
 H        -0.751840        -0.610993         0.749682
 H        -0.453439         1.156801         0.646812
 H         2.216208        -0.349795        -2.010291
 H         1.824358         1.375496        -1.691379
 H         4.319370         0.758687        -0.640975
 H         2.255372         0.590830         2.616986
