19
Iteration:  1259charge 0 multiplicity 1
 C         4.579081        -1.670453         0.828685
 C         3.325871        -0.845511         0.475559
 O         2.032318        -1.465542         0.061931
 C         1.465250        -0.191820         0.111574
 C         0.009854         0.047935         0.119896
 C         2.064682         0.687444        -1.141249
 C         3.427550         0.514725        -0.352072
 C         2.653918         0.360961         0.958904
 O         2.643994         1.074690         2.134484
 H         4.415904        -1.993312         1.911561
 H         4.588383        -2.431289         0.094482
 H         5.386361        -0.940103         0.724196
 H        -0.464856        -0.614950         0.884596
 H        -0.314947         1.123584         0.319433
 H        -0.479853        -0.376609        -0.791913
 H         1.895968         0.269960        -2.194317
 H         1.694925         1.682466        -1.110158
 H         4.393919         1.084688        -0.479136
 H         2.513808         2.034093         1.922082
