19
Iteration:  4102charge 0 multiplicity 1
 C         4.436003        -1.660334         0.895787
 C         3.227894        -0.858313         0.434512
 O         1.980269        -1.408268         0.179181
 C         1.385505         0.040085         0.034118
 C        -0.049336        -0.017864         0.363851
 C         2.167869         0.353239        -1.290151
 C         3.364731         0.367390        -0.480408
 C         2.702140         0.467027         0.916308
 O         2.887829         1.263829         2.065245
 H         4.991930        -1.929349         0.022656
 H         5.042913        -1.062065         1.678896
 H         4.044748        -2.532350         1.443854
 H        -0.078906        -0.110147         1.470023
 H        -0.504969         0.965301         0.242569
 H        -0.670410        -0.691545        -0.158464
 H         2.008801        -0.428144        -2.085639
 H         1.841703         1.337117        -1.689653
 H         4.415416         0.686614        -0.705072
 H         2.966453         2.218502         1.816236
