19
Iteration:  1667charge 0 multiplicity 1
 C         4.357265        -1.726394         0.974383
 C         3.251711        -0.823058         0.490863
 O         1.979732        -1.413874         0.143638
 C         1.459277        -0.100042         0.073745
 C         0.014035        -0.130238         0.536893
 C         2.203189         0.443200        -1.347494
 C         3.454964         0.509048        -0.511056
 C         2.732848         0.553013         0.792550
 O         2.815891         1.347760         1.908241
 H         3.825849        -2.676522         1.093201
 H         5.356736        -1.746286         0.398475
 H         4.576042        -1.543606         2.061878
 H        -0.744922        -0.809183         0.121481
 H        -0.102859        -0.671616         1.532120
 H        -0.592530         0.795765         0.662661
 H         2.003441        -0.362598        -2.090238
 H         1.751041         1.456271        -1.558097
 H         4.418103         0.825774        -0.903423
 H         1.875422         1.533956         2.154713
