19
Iteration:  2741charge 0 multiplicity 1
 C         4.445634        -1.499911         0.950820
 C         3.202238        -0.870271         0.531035
 O         1.906784        -1.415223         0.489433
 C         1.371833        -0.037290         0.064576
 C        -0.118015         0.070622         0.449500
 C         1.973969         0.104478        -1.293614
 C         3.281839         0.261092        -0.587320
 C         2.755924         0.511789         0.839367
 O         3.174970         1.485562         1.670360
 H         5.252495        -1.183679         0.314697
 H         4.842851        -1.423336         1.960954
 H         4.420270        -2.546026         0.690619
 H        -0.101707        -0.616725         1.235028
 H        -0.147934         1.064605         0.846926
 H        -0.657772        -0.195737        -0.417577
 H         1.795512        -0.790769        -1.859453
 H         1.861421         0.947544        -1.970413
 H         4.298932         0.279935        -1.021651
 H         2.931814         1.304883         2.642257
