19
Iteration:  4822charge 0 multiplicity 1
 C         4.320403        -1.844391         0.987668
 C         3.354949        -0.865882         0.433327
 O         2.022283        -1.436178        -0.063494
 C         1.424870        -0.022936        -0.012897
 C        -0.016156        -0.194118         0.387442
 C         2.133077         0.657366        -1.116456
 C         3.413987         0.536960        -0.285348
 C         2.704595         0.453215         0.915934
 O         2.794433         1.386106         1.878770
 H         4.362551        -2.666609         0.191391
 H         5.320721        -1.386198         0.863215
 H         4.068135        -2.517945         1.874113
 H        -0.813503        -0.134666        -0.389942
 H         0.104157        -1.256709         0.904406
 H        -0.286799         0.443632         1.226270
 H         2.164963         0.279242        -2.132557
 H         1.991091         1.742922        -1.093110
 H         4.402075         1.016477        -0.484869
 H         2.357326         1.090519         2.697269
