19
Iteration:   261charge 0 multiplicity 1
 C         4.377416        -1.895253         0.682601
 C         3.332008        -0.775770         0.464869
 O         2.200160        -1.447098        -0.043920
 C         1.524636        -0.085646        -0.048936
 C         0.015420         0.147241         0.239839
 C         2.213849         0.763062        -1.130252
 C         3.475107         0.736679        -0.227401
 C         2.625108         0.419165         0.946481
 O         2.449225         0.806039         2.274438
 H         3.924377        -2.774670         1.189489
 H         4.579522        -2.240514        -0.351986
 H         5.232187        -1.457699         1.183833
 H         0.043032         0.992005         0.902778
 H        -0.313911         0.544902        -0.742492
 H        -0.330212        -0.762702         0.739754
 H         2.174552         0.472555        -2.143345
 H         2.040948         1.773413        -1.025558
 H         4.551713         0.944386        -0.370360
 H         1.709905         1.478211         2.240308
