19
Iteration:  3433
 C         4.355171        -1.871039         0.959533
 C         3.244580        -0.840538         0.475832
 O         1.974661        -1.459050         0.147604
 C         1.434847        -0.107933         0.097759
 C        -0.055014         0.014967         0.414559
 C         2.075919         0.462700        -1.167909
 C         3.425638         0.281566        -0.449017
 C         2.756839         0.457503         0.883848
 O         2.904814         1.559834         1.840583
 H         3.901617        -2.862219         0.839384
 H         5.340829        -1.742985         0.543695
 H         4.422781        -1.751146         2.057189
 H        -0.330742         0.937655         0.011359
 H        -0.450091        -0.808927        -0.188917
 H        -0.333804        -0.162816         1.442633
 H         2.056774        -0.175129        -2.072095
 H         1.748761         1.488698        -1.243029
 H         4.420289         0.790261        -0.672178
 H         3.062879         2.351406         1.326271
