19
Iteration:  2825charge 0 multiplicity 1
 C         4.333815        -1.683172         1.066790
 C         3.197530        -0.879376         0.539388
 O         1.953654        -1.487462         0.344805
 C         1.347292        -0.123073         0.096355
 C         0.012709         0.047086         0.769693
 C         2.080841         0.305920        -1.350590
 C         3.480072         0.325795        -0.688220
 C         2.782119         0.508489         0.665059
 O         2.865947         1.534497         1.593767
 H         5.265348        -1.307962         0.614808
 H         4.348254        -1.377287         2.160025
 H         4.258214        -2.790901         1.109500
 H         0.372817        -0.128935         1.794846
 H        -0.477064         1.077260         0.669816
 H        -0.824739        -0.706042         0.731154
 H         2.016002        -0.508938        -2.110910
 H         1.634679         1.255122        -1.639179
 H         4.515665         0.304768        -0.975681
 H         3.723402         1.856348         1.861304
