19
Iteration:  4243
 C         4.493354        -1.639209         0.799225
 C         3.321369        -0.765923         0.490160
 O         1.960700        -1.440585         0.295593
 C         1.459030        -0.108894         0.141540
 C        -0.034102         0.121397         0.152439
 C         2.037614         0.317561        -1.176392
 C         3.347628         0.366200        -0.469021
 C         2.689012         0.556377         0.910130
 O         2.869739         1.181029         2.061837
 H         4.311617        -2.458847         0.204812
 H         5.491579        -1.208663         0.458648
 H         4.721808        -1.904976         1.800925
 H        -0.596376        -0.889479         0.036813
 H        -0.486663         0.682155         1.031475
 H        -0.168662         0.829580        -0.728181
 H         2.044710        -0.480497        -1.930400
 H         1.915314         1.235134        -1.667364
 H         4.273553         0.776211        -0.945573
 H         2.206040         1.838376         2.289555
