19
Iteration:  3390charge 0 multiplicity 1
 C         4.368155        -1.591707         0.910397
 C         3.228319        -0.773075         0.490469
 O         1.873866        -1.415014         0.429082
 C         1.479696        -0.168712         0.042783
 C        -0.063263         0.236117         0.407430
 C         2.145984         0.133339        -1.430666
 C         3.469638         0.356694        -0.619459
 C         2.783350         0.551814         0.737970
 O         2.877185         1.223656         2.078767
 H         4.656187        -2.354458         0.156792
 H         5.279414        -1.003629         1.080657
 H         4.085387        -2.150961         1.835267
 H        -0.037707         1.149741         0.919862
 H        -0.815696         0.282764        -0.374220
 H        -0.416845        -0.524610         1.107037
 H         2.038446        -0.640390        -2.229746
 H         1.869349         1.133594        -1.710588
 H         4.536007         0.502849        -1.000200
 H         2.611073         2.169388         2.062136
