19
Iteration:  2819
 C         4.366391        -1.655606         1.131869
 C         3.213783        -0.918446         0.533093
 O         1.937616        -1.459941         0.285971
 C         1.404999        -0.102773         0.074932
 C        -0.003435         0.027187         0.805040
 C         2.016894         0.307818        -1.343263
 C         3.468196         0.319533        -0.654945
 C         2.785076         0.519456         0.653643
 O         2.863440         1.522845         1.568393
 H         5.333132        -1.413812         0.690441
 H         4.383581        -1.431108         2.210666
 H         4.215722        -2.715845         1.299578
 H         0.265881        -0.128442         1.861500
 H        -0.161634         1.083746         0.678114
 H        -0.803282        -0.655636         0.523907
 H         1.935646        -0.483520        -2.074901
 H         1.551729         1.296848        -1.556965
 H         4.449323         0.301388        -1.241747
 H         3.748038         1.621557         1.947580
