19
Iteration:  1889charge 0 multiplicity 1
 C         4.455934        -1.635678         0.851774
 C         3.263478        -0.873931         0.456462
 O         1.970472        -1.445908         0.280889
 C         1.423543        -0.019335         0.082283
 C         0.027807         0.121038         0.520448
 C         2.108093         0.275184        -1.283481
 C         3.458947         0.284285        -0.529869
 C         2.689160         0.516506         0.797920
 O         2.779413         1.312517         1.964335
 H         4.623277        -1.825498         1.948427
 H         4.236503        -2.634324         0.462512
 H         5.406043        -1.382824         0.315278
 H        -0.313239        -0.531313         1.303532
 H        -0.181159         1.106821         0.884947
 H        -0.709415         0.011585        -0.274002
 H         2.026546        -0.311157        -2.243552
 H         1.937740         1.323399        -1.562033
 H         4.426995         0.710102        -0.889768
 H         2.191090         2.087787         1.820953
