19
Iteration:  4563
 C         4.533174        -1.483185         0.968871
 C         3.309127        -0.844543         0.434126
 O         1.961772        -1.503772         0.194258
 C         1.371837        -0.131083         0.049850
 C        -0.073851         0.132954         0.283933
 C         2.113631         0.484588        -1.272305
 C         3.450472         0.429504        -0.509730
 C         2.649860         0.420639         0.855867
 O         2.831843         1.113491         2.049697
 H         4.805761        -2.494321         0.524418
 H         5.256059        -0.808251         0.634372
 H         4.509399        -1.815605         2.057290
 H        -0.657681         0.254175        -0.604684
 H        -0.405438        -0.538281         1.114525
 H        -0.054794         1.076721         0.762124
 H         1.897949        -0.204261        -2.084645
 H         1.815688         1.552201        -1.542454
 H         4.398300         0.714237        -0.834066
 H         2.251432         0.834597         2.771528
