19
Iteration:  2882charge 0 multiplicity 1
 C         4.464709        -1.737836         0.857089
 C         3.287253        -0.850132         0.494555
 O         2.005668        -1.518199         0.589103
 C         1.367430        -0.094606         0.274681
 C        -0.139762         0.163142         0.439174
 C         1.999209         0.166410        -1.255407
 C         3.354911         0.239980        -0.670819
 C         2.793891         0.538773         0.794846
 O         3.039298         1.581226         1.684639
 H         5.313634        -1.273380         1.318637
 H         4.006461        -2.279984         1.629055
 H         4.773399        -2.329252         0.004509
 H        -0.537796         0.680006         1.330031
 H        -0.357206         1.006751        -0.311690
 H        -0.743906        -0.743853         0.124549
 H         1.979168        -0.486595        -2.101186
 H         1.582752         1.085907        -1.693923
 H         4.346686         0.637446        -1.166455
 H         2.164003         2.027436         1.720339
