19
Iteration:  1121
 C         4.489919        -1.700566         0.760972
 C         3.247221        -0.835982         0.421773
 O         2.046289        -1.418384         0.031562
 C         1.490051        -0.062622        -0.059867
 C        -0.041865         0.020460         0.317471
 C         2.256705         0.536285        -1.276449
 C         3.468686         0.586208        -0.233244
 C         2.572773         0.424389         0.962438
 O         2.601703         1.074701         2.223873
 H         4.210535        -2.734726         1.052603
 H         5.138269        -1.994481        -0.190288
 H         5.236548        -1.320388         1.514881
 H        -0.151062         0.159567         1.396428
 H        -0.621594         0.684587        -0.291999
 H        -0.406194        -1.007855         0.266706
 H         2.444964        -0.091175        -2.169716
 H         1.965924         1.582932        -1.674114
 H         4.449043         1.045213        -0.373389
 H         2.321742         1.992892         2.102184
