19
Iteration:  1492charge 0 multiplicity 1
 C         4.419243        -1.645005         0.884821
 C         3.262886        -0.924220         0.384627
 O         1.889452        -1.366695        -0.053076
 C         1.443831         0.001963         0.036503
 C         0.037566        -0.153879         0.547265
 C         2.329925         0.524723        -1.218536
 C         3.489183         0.417597        -0.308364
 C         2.617247         0.453412         0.871213
 O         2.666407         1.266050         2.001739
 H         5.006643        -1.129277         1.634821
 H         4.246255        -2.659391         1.455550
 H         5.220821        -1.846271         0.101138
 H         0.007590        -0.130973         1.695199
 H        -0.675127         0.554730         0.019321
 H        -0.191858        -1.273725         0.385956
 H         2.325870        -0.037407        -2.163002
 H         1.973286         1.586164        -1.446673
 H         4.493565         0.801016        -0.536578
 H         2.256673         2.092194         1.729418
