19
Iteration:   691charge 0 multiplicity 1
 C         4.416080        -1.789839         0.795201
 C         3.254140        -0.852592         0.418299
 O         2.099762        -1.408752        -0.142263
 C         1.499151        -0.073395        -0.059019
 C        -0.031518        -0.164231         0.251062
 C         2.211492         0.883760        -1.008750
 C         3.440219         0.501215        -0.231086
 C         2.621439         0.316854         1.022947
 O         2.680957         1.206432         2.078193
 H         4.072979        -2.651650         1.358689
 H         4.919586        -2.192882        -0.037861
 H         5.274711        -1.304071         1.298929
 H        -0.692692         0.218646        -0.503951
 H        -0.293070        -1.211540         0.158808
 H        -0.336176         0.048400         1.241471
 H         2.217941         0.796540        -2.059581
 H         1.898834         1.861463        -0.783511
 H         4.362062         1.080421        -0.190356
 H         1.920932         1.171838         2.700408
