19
Iteration:  1190charge 0 multiplicity 1
 C         4.334990        -1.638736         1.114834
 C         3.277977        -0.788382         0.424438
 O         2.035371        -1.368066        -0.187576
 C         1.363418        -0.038418        -0.092259
 C        -0.055608        -0.248348         0.306867
 C         2.180731         0.777523        -1.209298
 C         3.430473         0.619715        -0.319179
 C         2.645273         0.406102         0.899697
 O         2.869554         0.950730         2.188337
 H         4.162852        -1.788429         2.231879
 H         4.381253        -2.688181         0.571395
 H         5.281340        -1.072212         0.861397
 H        -0.312864        -0.125328         1.357390
 H        -0.714607         0.266765        -0.415154
 H        -0.190636        -1.335537         0.175534
 H         2.261646         0.237111        -2.186140
 H         1.604329         1.771279        -1.386452
 H         4.454203         0.943125        -0.387490
 H         3.231378         1.831857         2.088887
