19
Iteration:   593charge 0 multiplicity 1
 C         4.468265        -1.632201         0.823563
 C         3.264650        -0.890381         0.353393
 O         1.982797        -1.381771        -0.134547
 C         1.503808        -0.025058         0.001348
 C         0.028493         0.062155         0.241800
 C         2.233851         0.703904        -1.158023
 C         3.446764         0.579691        -0.268271
 C         2.621585         0.417813         0.977611
 O         2.652925         0.787825         2.289550
 H         4.234398        -2.112534         1.798888
 H         4.917287        -2.206411         0.040414
 H         5.399421        -1.016408         1.124340
 H        -0.472957        -0.908783        -0.074542
 H        -0.337400         0.277271         1.270210
 H        -0.476921         0.845416        -0.426497
 H         2.345966         0.165197        -2.097794
 H         1.797951         1.798482        -1.306672
 H         4.451157         1.056566        -0.380204
 H         1.923962         1.438042         2.346047
