19
Iteration:  4477charge 0 multiplicity 1
 C         4.267576        -1.838405         0.947959
 C         3.243605        -0.825845         0.565855
 O         1.994221        -1.437435         0.134314
 C         1.501642        -0.115825        -0.018740
 C         0.012649        -0.187934         0.389337
 C         2.128829         0.569888        -1.227005
 C         3.409706         0.535625        -0.475134
 C         2.778157         0.531857         0.821471
 O         2.797560         1.431514         1.911393
 H         4.323094        -2.519587         0.027982
 H         5.195465        -1.389087         1.188612
 H         4.008109        -2.383069         1.910697
 H        -0.275125        -1.241431         0.182523
 H         0.101354        -0.162589         1.553043
 H        -0.865155         0.563270         0.221008
 H         2.116013         0.166109        -2.191319
 H         1.801927         1.645455        -1.179155
 H         4.401572         0.777838        -0.823908
 H         3.182558         1.058892         2.754431
