19
Iteration:  1634charge 0 multiplicity 1
 C         4.436638        -1.682610         1.012487
 C         3.349979        -0.841435         0.482248
 O         2.097776        -1.518695         0.096576
 C         1.462765        -0.167420         0.074309
 C        -0.062123         0.036994         0.275126
 C         1.970239         0.469005        -1.218287
 C         3.320476         0.459747        -0.445999
 C         2.638813         0.455691         0.902014
 O         2.923483         1.405325         1.921964
 H         3.864677        -2.450122         1.524438
 H         5.109224        -2.338066         0.372697
 H         5.011310        -1.108468         1.767256
 H        -0.421129        -0.976618         0.134779
 H        -0.015212         0.347963         1.331078
 H        -0.550781         0.774662        -0.378647
 H         1.588596        -0.139051        -2.069608
 H         1.681077         1.551599        -1.338816
 H         4.246370         0.877967        -0.877985
 H         2.518687         0.959266         2.678641
