19
Iteration:    97
 C         4.501938        -1.729164         0.813935
 C         3.267691        -0.904063         0.395623
 O         1.976961        -1.396114        -0.291565
 C         1.449430        -0.035595        -0.002224
 C        -0.065380         0.097635         0.112995
 C         2.250029         0.824027        -1.011983
 C         3.434366         0.532910        -0.135030
 C         2.629333         0.245728         1.076453
 O         2.737343         0.994412         2.227363
 H         4.271270        -2.491423         1.527808
 H         4.794113        -2.284545        -0.071869
 H         5.339394        -1.124048         1.271872
 H        -0.269034         1.137855         0.066292
 H        -0.517678        -0.352017        -0.785722
 H        -0.454807        -0.377485         1.034415
 H         2.168954         0.536052        -2.046082
 H         1.902130         1.992882        -0.969589
 H         4.431139         0.818590        -0.365098
 H         2.061744         0.627316         2.794835
