19
Iteration:  2531charge 0 multiplicity 1
 C         4.436983        -1.600975         0.947922
 C         3.167709        -0.821785         0.597761
 O         1.881117        -1.389094         0.412655
 C         1.355204        -0.091436         0.158746
 C        -0.109005         0.029514         0.539289
 C         1.995172         0.192017        -1.239070
 C         3.323390         0.115557        -0.620592
 C         2.808463         0.571377         0.788144
 O         3.229749         1.543337         1.588717
 H         4.128037        -2.559913         1.494268
 H         4.888431        -1.931019         0.018204
 H         5.175132        -1.053805         1.629877
 H        -0.672874        -0.359394         1.322523
 H        -0.284602         1.120711         0.592012
 H        -0.645104        -0.196090        -0.365448
 H         1.829237        -0.630079        -1.958438
 H         1.736035         1.149260        -1.659190
 H         4.272070         0.277919        -1.180944
 H         2.838909         1.433862         2.447436
