19
Iteration:  1234
 C         4.412853        -1.745056         0.868158
 C         3.310561        -0.758202         0.448477
 O         2.102736        -1.425166         0.110331
 C         1.429351        -0.082439         0.067942
 C        -0.070296        -0.133399         0.081949
 C         2.119341         0.661278        -1.189615
 C         3.432535         0.710514        -0.428484
 C         2.690196         0.507033         0.923545
 O         2.790862         0.956380         2.244938
 H         4.190972        -1.835707         1.937277
 H         4.098088        -2.713134         0.414920
 H         5.378859        -1.279571         0.660449
 H        -0.273458        -0.370938         1.117280
 H        -0.614025         0.778103        -0.180747
 H        -0.515214        -0.943253        -0.462178
 H         2.057213         0.025467        -2.090662
 H         1.716878         1.666688        -1.503511
 H         4.351985         1.004215        -0.853371
 H         2.192328         1.687887         2.452473
