19
Iteration:  4182charge 0 multiplicity 1
 C         4.296458        -1.628857         1.081258
 C         3.283070        -0.890982         0.429339
 O         2.051651        -1.506760         0.027204
 C         1.407165        -0.042721         0.038152
 C        -0.039445        -0.016320         0.509009
 C         2.073163         0.534742        -1.223646
 C         3.474790         0.362182        -0.476772
 C         2.726442         0.394880         0.860575
 O         2.828510         1.320301         1.911647
 H         5.090314        -1.933198         0.286613
 H         4.823347        -1.001732         1.776375
 H         3.753141        -2.550793         1.463951
 H        -0.333892        -0.987908         0.851902
 H        -0.087215         0.612028         1.408452
 H        -0.765030         0.232081        -0.194245
 H         1.962528        -0.117176        -2.102461
 H         1.937104         1.633215        -1.510463
 H         4.363585         0.847535        -0.774178
 H         3.279164         2.128377         1.582026
