19
Iteration:  4038
 C         4.474986        -1.634344         0.917618
 C         3.253624        -0.833357         0.522981
 O         1.973920        -1.459837         0.146619
 C         1.447942        -0.020875         0.156496
 C        -0.142063         0.017637         0.200284
 C         2.056048         0.411559        -1.220467
 C         3.390931         0.430000        -0.485685
 C         2.702338         0.478059         0.869348
 O         2.947692         1.176130         2.080873
 H         4.250655        -2.683348         0.585641
 H         5.450315        -1.393265         0.317284
 H         4.667795        -1.679548         2.029008
 H        -0.291224         0.579219         1.154724
 H        -0.465005         0.663226        -0.623897
 H        -0.623330        -0.922254         0.252961
 H         1.911697        -0.205838        -2.132891
 H         1.842273         1.489890        -1.465957
 H         4.376919         0.841909        -0.796229
 H         2.695839         2.098443         1.952110
