19
Iteration:  3124
 C         4.391700        -1.669798         1.223741
 C         3.168809        -0.891296         0.526909
 O         1.847997        -1.427865         0.283301
 C         1.353730        -0.042784         0.046920
 C        -0.046462         0.013832         0.582929
 C         2.118335         0.306446        -1.321754
 C         3.384266         0.203801        -0.565200
 C         2.737013         0.579839         0.668131
 O         3.155742         1.469710         1.664337
 H         5.335279        -1.405292         0.731261
 H         4.278100        -1.605674         2.321888
 H         4.216977        -2.739698         1.018216
 H        -0.137498         0.228593         1.700657
 H        -0.707365         0.669512         0.028224
 H        -0.500002        -0.961487         0.468702
 H         2.003431        -0.422418        -2.140566
 H         1.928194         1.392604        -1.564491
 H         4.451067         0.356489        -0.922892
 H         2.554702         2.262616         1.677663
