19
Iteration:  1306
 C         4.558812        -1.716610         0.877121
 C         3.228025        -0.844426         0.498496
 O         2.001646        -1.417857        -0.057587
 C         1.468114        -0.045968        -0.040002
 C         0.087234        -0.107011         0.445329
 C         2.260471         0.569355        -1.229078
 C         3.414569         0.562837        -0.277198
 C         2.566645         0.435392         0.914803
 O         2.530917         1.154259         2.036858
 H         4.136785        -2.662154         1.207611
 H         5.089893        -1.682848        -0.121961
 H         5.113529        -1.230587         1.714884
 H        -0.349514        -1.081569         0.817422
 H        -0.036809         0.730939         1.205973
 H        -0.681068         0.192542        -0.372283
 H         2.331215        -0.126513        -2.055585
 H         1.916913         1.579143        -1.556376
 H         4.436730         0.928057        -0.339869
 H         3.266599         1.763934         1.985507
