19
Iteration:   116charge 0 multiplicity 1
 C         4.326877        -1.697492         0.741155
 C         3.129757        -0.929087         0.431992
 O         1.994065        -1.392705        -0.087012
 C         1.449658        -0.001459        -0.091131
 C        -0.116284        -0.015931         0.032485
 C         2.314189         0.839738        -1.069116
 C         3.511303         0.654194        -0.174535
 C         2.630663         0.347113         1.004767
 O         2.864504         0.872852         2.303439
 H         4.245399        -2.477407         1.511609
 H         4.885159        -2.076904        -0.139512
 H         4.986427        -0.829618         1.174458
 H        -0.431911         1.028078        -0.307419
 H        -0.481147        -0.846516        -0.635208
 H        -0.307558        -0.267345         1.133350
 H         2.376196         0.482429        -2.209469
 H         1.938697         1.909759        -1.059004
 H         4.493619         1.130767         0.066850
 H         2.368716         0.332090         2.925107
