19
Iteration:   494charge 0 multiplicity 1
 C         4.323309        -1.819399         0.647652
 C         3.277272        -0.748670         0.425003
 O         2.074000        -1.305971        -0.115477
 C         1.462777         0.035177        -0.021694
 C         0.026048        -0.129831         0.219088
 C         2.269545         0.753958        -1.137476
 C         3.559148         0.594107        -0.329527
 C         2.686651         0.470931         1.047312
 O         2.484972         0.891660         2.348088
 H         3.828624        -2.659147         1.268648
 H         4.800406        -2.216841        -0.296818
 H         5.284590        -1.621606         1.317243
 H        -0.363898         0.386985         1.152525
 H        -0.673929         0.457292        -0.453613
 H        -0.310797        -1.175554         0.406810
 H         2.274039         0.177060        -2.111622
 H         1.860663         1.903963        -1.226895
 H         4.517625         0.987037        -0.391683
 H         3.338949         0.957059         2.840272
