19
Iteration:   754
 C         4.434658        -1.669676         0.838335
 C         3.342961        -0.742052         0.436436
 O         2.127555        -1.456308         0.041049
 C         1.451814        -0.153291        -0.014515
 C         0.008730         0.021048         0.173925
 C         2.130152         0.698575        -1.183058
 C         3.417973         0.675286        -0.362809
 C         2.646338         0.450098         0.933712
 O         2.632563         0.827096         2.267848
 H         4.044829        -2.235078         1.751701
 H         4.804388        -2.255683        -0.132967
 H         5.390337        -1.064904         1.138533
 H        -0.160271         1.150834         0.133872
 H        -0.447657        -0.367943        -0.790630
 H        -0.363999        -0.390465         1.146882
 H         2.219541         0.014665        -2.172172
 H         1.458351         1.576628        -1.325029
 H         4.413119         1.104598        -0.552762
 H         2.055810         1.600597         2.434130
