19
Iteration:  2898charge 0 multiplicity 1
 C         4.449385        -1.677025         0.885273
 C         3.312132        -0.850338         0.538370
 O         1.913540        -1.416571         0.609671
 C         1.422960        -0.200967         0.170065
 C         0.007799         0.157958         0.348462
 C         1.913579         0.171802        -1.250627
 C         3.285701         0.248133        -0.545525
 C         2.717493         0.551711         0.743274
 O         3.117768         1.531865         1.617967
 H         5.171719        -1.072913         1.491990
 H         4.151258        -2.582890         1.517173
 H         4.982127        -1.921477        -0.073339
 H        -0.248129         0.262935         1.413301
 H        -0.342098         0.935391        -0.296560
 H        -0.632261        -0.675994         0.117259
 H         1.531672        -0.587494        -2.003788
 H         1.573588         1.188426        -1.490029
 H         4.210050         0.531290        -0.925552
 H         2.567610         1.708984         2.369401
