19
Iteration:    73charge 0 multiplicity 1
 C         4.390222        -1.879967         0.726087
 C         3.316920        -0.921430         0.374291
 O         2.143472        -1.408934        -0.231514
 C         1.514117        -0.060618         0.026362
 C         0.020321         0.146665         0.254845
 C         2.216064         0.831375        -1.000215
 C         3.507153         0.526300        -0.250919
 C         2.634198         0.256420         1.056515
 O         2.486554         1.083776         2.169556
 H         4.132176        -2.515752         1.573751
 H         4.851363        -2.530242        -0.026922
 H         5.110323        -1.109905         1.249860
 H        -0.130225         1.124960         0.831255
 H        -0.496732         0.282282        -0.735959
 H        -0.408982        -0.754424         0.813814
 H         2.050505         0.584058        -2.154524
 H         1.874894         1.987622        -0.931315
 H         4.344613         1.295934        -0.335199
 H         2.169057         0.485255         2.884866
