19
Iteration:  1614
 C         4.480995        -1.554163         0.990952
 C         3.229046        -0.900296         0.432180
 O         1.976878        -1.471465         0.143622
 C         1.423099        -0.065239         0.113338
 C        -0.164503        -0.059391         0.250683
 C         2.124567         0.521016        -1.161751
 C         3.449247         0.343929        -0.479993
 C         2.727934         0.459270         0.900413
 O         2.853945         1.328192         1.939342
 H         4.432307        -2.217210         1.873735
 H         4.835412        -2.308068         0.282920
 H         5.283349        -0.810643         1.069755
 H        -0.672480        -1.059343         0.259590
 H        -0.443902         0.620130         1.110663
 H        -0.589064         0.394579        -0.657294
 H         1.995843        -0.079076        -2.071848
 H         1.599841         1.484949        -1.176732
 H         4.383546         0.810960        -0.810838
 H         3.400549         0.956937         2.671133
