19
Iteration:   863charge 0 multiplicity 1
 C         4.339753        -1.905985         0.779149
 C         3.451750        -0.767218         0.465574
 O         2.232202        -1.382860         0.002844
 C         1.477290        -0.094697         0.078124
 C         0.040745        -0.184179         0.227696
 C         2.092807         0.623779        -1.173755
 C         3.422096         0.634792        -0.401096
 C         2.665678         0.536896         0.989857
 O         2.465847         1.211370         2.174992
 H         3.756955        -2.782582         1.155978
 H         4.899366        -2.267570        -0.161151
 H         5.009408        -1.673009         1.665914
 H        -0.308956        -0.584264         1.270771
 H        -0.440260         0.864267        -0.016971
 H        -0.422007        -0.851448        -0.566576
 H         1.733622         0.149063        -2.162940
 H         1.804764         1.695956        -1.164969
 H         4.351876         1.050937        -0.540982
 H         3.329837         1.468869         2.522603
