19
Iteration:  2113
 C         4.310059        -1.763661         1.067106
 C         3.357483        -0.794891         0.364750
 O         2.001291        -1.468532         0.301654
 C         1.447363        -0.136684         0.179319
 C         0.018364         0.155088         0.517425
 C         1.905471         0.239438        -1.280527
 C         3.363037         0.266971        -0.694666
 C         2.713089         0.597577         0.795480
 O         3.008570         1.407205         1.868259
 H         5.290292        -1.209761         1.304978
 H         3.912837        -1.911210         2.182507
 H         4.512868        -2.669223         0.435643
 H        -0.647068        -0.604702         1.042901
 H         0.115892         1.015350         1.182583
 H        -0.570065         0.410332        -0.379530
 H         1.668560        -0.586073        -1.991083
 H         1.623850         1.246260        -1.764883
 H         4.218203         0.654397        -1.240327
 H         3.111265         2.307330         1.553221
