19
Iteration:  3855charge 0 multiplicity 1
 C         4.404820        -1.725171         0.880561
 C         3.216535        -0.810655         0.540717
 O         1.984726        -1.384408         0.079640
 C         1.459564        -0.062581         0.049206
 C        -0.065077        -0.132781         0.102634
 C         2.067125         0.647894        -1.132475
 C         3.397910         0.485133        -0.363648
 C         2.614675         0.416632         1.036638
 O         3.011539         1.137200         2.040825
 H         4.212348        -2.079028         1.880854
 H         4.222310        -2.548763         0.214390
 H         5.373186        -1.216671         0.776730
 H        -0.500673         0.652765        -0.551572
 H        -0.317964        -1.155704        -0.280681
 H        -0.490992         0.017353         1.075530
 H         2.039516         0.060232        -2.033815
 H         1.760423         1.709686        -1.309573
 H         4.290420         1.011145        -0.586405
 H         3.094035         2.118006         1.962356
