19
Iteration:  2132
 C         4.185363        -1.742642         1.150709
 C         3.284908        -0.814943         0.477775
 O         2.050819        -1.386234         0.301072
 C         1.388167        -0.008830         0.058142
 C        -0.009499         0.018613         0.590709
 C         1.947621         0.228100        -1.320607
 C         3.300745         0.357226        -0.692741
 C         2.821265         0.541251         0.715774
 O         3.121918         1.396601         1.813643
 H         5.014754        -1.463950         1.777963
 H         3.724627        -2.505848         1.826833
 H         4.679462        -2.276112         0.295667
 H        -0.219277        -0.891131         1.100606
 H        -0.263644         0.801231         1.308044
 H        -0.686856         0.056538        -0.236360
 H         1.690264        -0.536450        -2.084592
 H         1.546241         1.187453        -1.652474
 H         4.295854         0.659405        -1.025983
 H         3.208919         2.305564         1.524593
