19
Iteration:  3786charge 0 multiplicity 1
 C         4.279269        -1.764704         1.038371
 C         3.273082        -0.821738         0.449980
 O         2.054987        -1.437883        -0.115391
 C         1.478534        -0.089051        -0.037933
 C         0.099262         0.015302         0.558974
 C         2.127768         0.635566        -1.311867
 C         3.419847         0.566455        -0.444536
 C         2.716800         0.447684         0.833315
 O         2.736091         1.048649         2.126102
 H         3.704964        -2.671303         1.051217
 H         5.212058        -1.905653         0.451776
 H         4.395011        -1.418471         2.043981
 H        -0.599067         0.756478         0.005107
 H        -0.293309        -1.008017         0.683245
 H         0.309796         0.518290         1.531447
 H         1.956716        -0.032140        -2.170981
 H         1.808782         1.659736        -1.515449
 H         4.420001         0.936704        -0.751175
 H         2.461637         1.949662         1.886457
