19
Iteration:  2317
 C         4.260719        -1.804558         1.150039
 C         3.282842        -0.936653         0.408707
 O         1.968620        -1.463298         0.251330
 C         1.425337        -0.087845         0.206754
 C        -0.038694         0.058498         0.644548
 C         1.950177         0.358510        -1.205705
 C         3.357745         0.232290        -0.656552
 C         2.843954         0.504390         0.735452
 O         3.123731         1.646542         1.574297
 H         3.708935        -2.299382         1.954164
 H         4.576673        -2.668057         0.514615
 H         5.074786        -1.197392         1.519969
 H        -0.220978        -0.398389         1.665646
 H        -0.300179         1.178684         0.734437
 H        -0.629383        -0.399468        -0.175896
 H         1.782238        -0.298682        -2.078838
 H         1.680010         1.367178        -1.465295
 H         4.227211         0.677414        -1.101743
 H         2.418623         1.659033         2.239725
