19
Iteration:  4007
 C         4.277875        -1.735985         1.040699
 C         3.270179        -0.818442         0.386415
 O         2.000328        -1.489867         0.081119
 C         1.458195        -0.028928         0.027313
 C        -0.002965        -0.159209         0.455816
 C         2.143292         0.556765        -1.395217
 C         3.417006         0.516261        -0.486418
 C         2.684984         0.530126         0.870403
 O         2.897063         1.221885         2.076694
 H         3.536467        -2.571997         1.008024
 H         5.293561        -1.886622         0.577220
 H         4.380600        -1.397992         2.108113
 H        -0.085575         0.447687         1.455381
 H        -0.920297         0.275937        -0.085632
 H        -0.261929        -1.204469         0.766958
 H         2.052412         0.061741        -2.354108
 H         1.901857         1.648776        -1.488939
 H         4.487871         0.872232        -0.645942
 H         3.043770         2.151600         1.771354
