19
Iteration:  4004
 C         4.252371        -1.759200         1.081180
 C         3.289100        -0.814187         0.366648
 O         1.987994        -1.496445         0.059449
 C         1.450654        -0.051886         0.054075
 C         0.004044        -0.172886         0.477023
 C         2.169945         0.602490        -1.415169
 C         3.416742         0.525058        -0.497133
 C         2.700634         0.525157         0.871115
 O         2.878504         1.231508         2.067158
 H         3.581361        -2.616298         1.093031
 H         5.314840        -1.890394         0.537997
 H         4.416310        -1.357865         2.114514
 H        -0.071737         0.388821         1.435477
 H        -0.863007         0.212996         0.019074
 H        -0.257959        -1.103285         0.806236
 H         1.974478         0.031437        -2.387697
 H         1.977813         1.688734        -1.515093
 H         4.360463         0.909355        -0.715678
 H         3.070401         2.157071         1.758399
