19
Iteration:   906
 C         4.568099        -1.545290         0.733939
 C         3.224775        -0.965081         0.543144
 O         2.052305        -1.454991        -0.052602
 C         1.362808        -0.065443        -0.025241
 C        -0.067364        -0.056901         0.306641
 C         2.294139         0.608348        -1.171083
 C         3.486752         0.415800        -0.216152
 C         2.605340         0.373324         0.974354
 O         2.531888         1.203301         2.114601
 H         4.656696        -2.399919         1.332286
 H         5.036370        -1.834551        -0.245669
 H         5.205095        -0.835015         1.275844
 H        -0.247082        -1.047040         0.855123
 H        -0.311131         0.865438         0.939532
 H        -0.600933         0.143990        -0.650905
 H         2.378810         0.254933        -2.154344
 H         1.880489         1.621692        -1.205967
 H         4.457157         0.688314        -0.404450
 H         3.251954         1.822393         1.953434
