19
Iteration:  1533charge 0 multiplicity 1
 C         4.435596        -1.805962         1.009620
 C         3.332602        -0.802026         0.429438
 O         2.091733        -1.482544         0.030982
 C         1.499600        -0.219130         0.012100
 C         0.053082         0.058736         0.449580
 C         2.020504         0.564922        -1.164080
 C         3.433143         0.562311        -0.502452
 C         2.684179         0.425821         0.904039
 O         2.569769         1.239206         1.978311
 H         4.774909        -1.533996         2.004819
 H         4.110145        -2.902219         1.004881
 H         5.361336        -1.783203         0.372420
 H        -0.060413         0.097315         1.521640
 H        -0.195906         0.968111        -0.080193
 H        -0.531317        -0.689266        -0.098986
 H         1.815238         0.135394        -2.190654
 H         1.740678         1.645996        -1.252977
 H         4.348236         1.071796        -0.719584
 H         3.306139         1.900406         2.057804
