19
Iteration:  4869charge 0 multiplicity 1
 C         4.315744        -1.887310         0.885455
 C         3.311166        -0.867837         0.457750
 O         2.102508        -1.410907        -0.041681
 C         1.473316        -0.050082         0.053708
 C         0.011491        -0.119570         0.419629
 C         2.092034         0.618070        -1.136099
 C         3.499090         0.528865        -0.417149
 C         2.656513         0.463936         0.892600
 O         2.730065         1.384496         1.966839
 H         5.080587        -2.341972         0.259971
 H         4.798767        -1.514869         1.759990
 H         3.705841        -2.774154         1.090324
 H        -0.496935        -0.700406        -0.363634
 H        -0.032086        -0.583309         1.448515
 H        -0.450361         0.895725         0.421921
 H         1.900878         0.025443        -2.028066
 H         1.622445         1.637037        -1.177285
 H         4.441534         1.028524        -0.532963
 H         2.566819         0.969871         2.865621
