19
Iteration:  4044charge 0 multiplicity 1
 C         4.530579        -1.607782         0.883971
 C         3.278720        -0.853155         0.480347
 O         1.971701        -1.506291         0.207202
 C         1.381726        -0.029552         0.087881
 C        -0.146219         0.094098         0.203446
 C         2.049904         0.437770        -1.234395
 C         3.379903         0.406751        -0.482945
 C         2.730942         0.457791         0.901278
 O         2.948334         1.197564         2.109496
 H         4.329894        -2.623412         0.592973
 H         5.478547        -1.402147         0.478020
 H         4.602452        -1.764348         1.936035
 H        -0.523409         0.574070         1.100139
 H        -0.377625         0.631429        -0.728297
 H        -0.566530        -0.969624         0.099181
 H         1.913970        -0.225318        -2.107707
 H         1.675558         1.431193        -1.416904
 H         4.368514         0.732668        -0.661642
 H         2.680469         2.118950         2.006752
