19
Iteration:  1606
 C         4.484880        -1.529259         0.918999
 C         3.230407        -0.895562         0.462803
 O         1.943647        -1.486819         0.210594
 C         1.426382        -0.032023         0.092943
 C        -0.180395        -0.064503         0.221274
 C         2.170934         0.541815        -1.184603
 C         3.464935         0.360346        -0.451771
 C         2.683872         0.429488         0.883859
 O         2.848887         1.290839         1.956841
 H         4.375025        -1.899127         2.005965
 H         4.751314        -2.329322         0.296119
 H         5.269209        -0.771587         0.893952
 H        -0.364854        -1.129790         0.478758
 H        -0.427441         0.534632         1.111446
 H        -0.706759         0.309082        -0.653967
 H         1.921187        -0.038302        -2.074984
 H         1.879433         1.581064        -1.345684
 H         4.438415         0.670154        -0.782394
 H         3.570985         0.926397         2.500296
