19
Iteration:  4682charge 0 multiplicity 1
 C         4.304774        -1.764976         1.006025
 C         3.247086        -0.873323         0.418347
 O         2.056692        -1.419266        -0.045075
 C         1.448077        -0.147879        -0.008556
 C         0.016641        -0.179427         0.522706
 C         2.178417         0.689056        -1.201075
 C         3.420821         0.545773        -0.373743
 C         2.699895         0.459573         0.841663
 O         2.829665         1.314621         1.904036
 H         4.989889        -2.391610         0.372130
 H         4.772193        -1.223110         1.771720
 H         3.612924        -2.634469         1.283834
 H        -0.517368        -1.133084         0.292765
 H        -0.024908         0.043055         1.708056
 H        -0.541688         0.587733         0.050972
 H         2.124375         0.500685        -2.334774
 H         1.905896         1.781665        -0.883521
 H         4.383009         0.926016        -0.542284
 H         2.099464         0.917773         2.486730
