19
Iteration:  2879charge 0 multiplicity 1
 C         4.443977        -1.747330         0.865609
 C         3.299649        -0.883441         0.506678
 O         2.023319        -1.514513         0.553818
 C         1.370289        -0.072699         0.268163
 C        -0.155117         0.176153         0.457695
 C         1.992235         0.149401        -1.255805
 C         3.383428         0.248100        -0.663417
 C         2.841990         0.543773         0.786026
 O         3.001370         1.591992         1.704698
 H         5.384917        -1.235448         1.239536
 H         4.010373        -2.310268         1.798415
 H         4.676902        -2.320134        -0.081954
 H        -0.566320         0.602628         1.375697
 H        -0.449772         0.957120        -0.306632
 H        -0.771380        -0.720225         0.198498
 H         1.954547        -0.534121        -2.160905
 H         1.555180         1.064350        -1.689540
 H         4.248502         0.596321        -1.240999
 H         2.224480         2.135153         1.596061
