19
Iteration:  3287charge 0 multiplicity 1
 C         4.220204        -1.894562         1.169482
 C         3.291940        -0.825290         0.493632
 O         1.998187        -1.387013         0.338405
 C         1.431157         0.034683         0.063922
 C        -0.071754        -0.102553         0.485218
 C         2.004244         0.236790        -1.389291
 C         3.359997         0.302782        -0.642731
 C         2.780441         0.665144         0.856035
 O         3.085147         1.576725         1.773496
 H         5.250650        -1.628989         1.288521
 H         3.636909        -2.172879         2.045467
 H         4.266638        -2.822456         0.619994
 H        -0.124326        -0.941267         1.197460
 H        -0.423608         0.810262         0.881019
 H        -0.642120        -0.455691        -0.321204
 H         1.975714        -0.548465        -2.119120
 H         1.738886         1.208467        -1.824716
 H         4.433110         0.514594        -0.888138
 H         3.133906         2.454076         1.326349
