19
Iteration:  4997
 C         4.289153        -1.852288         1.035819
 C         3.277029        -0.823588         0.356772
 O         2.047821        -1.382834        -0.086517
 C         1.417629        -0.031239         0.040193
 C         0.028150        -0.196706         0.485951
 C         2.175151         0.686875        -1.250485
 C         3.452828         0.509226        -0.464066
 C         2.681738         0.484933         0.892968
 O         2.789111         1.300519         2.034957
 H         4.018445        -2.900387         0.759839
 H         5.334077        -1.648708         0.850662
 H         4.125146        -1.561177         2.124169
 H        -0.605693        -0.709966        -0.221642
 H        -0.112063        -0.931265         1.336737
 H        -0.333780         0.710470         0.844913
 H         2.193893         0.062447        -2.180832
 H         1.754069         1.653372        -1.498646
 H         4.290057         1.110832        -0.688135
 H         2.853075         0.657622         2.747731
