19
Iteration:  1271
 C         4.542535        -1.575316         0.780800
 C         3.300584        -0.867462         0.430625
 O         2.062101        -1.540945        -0.024931
 C         1.443478        -0.123633         0.028354
 C        -0.042262         0.017192         0.212303
 C         2.176641         0.624646        -1.071044
 C         3.405424         0.435026        -0.320913
 C         2.597488         0.379253         0.998172
 O         2.604657         1.168914         2.150485
 H         4.554582        -2.191217         1.745977
 H         4.904360        -2.356023         0.119067
 H         5.429524        -0.920114         0.892971
 H        -0.483253        -0.606780         1.030082
 H        -0.110360         1.097026         0.591326
 H        -0.540796         0.054598        -0.823058
 H         2.070985         0.170692        -2.101642
 H         1.881148         1.651248        -1.073250
 H         4.475512         0.739973        -0.520669
 H         2.818831         2.062142         1.865592
