19
Iteration:  4919charge 0 multiplicity 1
 C         4.513587        -1.449683         0.827534
 C         3.228084        -0.873534         0.463631
 O         1.920588        -1.472405         0.121854
 C         1.422033        -0.103305         0.114804
 C        -0.045031         0.166076         0.224850
 C         2.129260         0.462170        -1.270417
 C         3.386534         0.367869        -0.416993
 C         2.717529         0.498177         0.900930
 O         2.842156         1.056801         2.166604
 H         5.046842        -1.458738        -0.170066
 H         5.106853        -0.887145         1.591340
 H         4.610274        -2.560667         1.005837
 H        -0.498169        -0.749756        -0.182252
 H        -0.449576         0.488812         1.235054
 H        -0.286939         0.976873        -0.411518
 H         1.924590        -0.207127        -2.135915
 H         1.996927         1.529787        -1.339139
 H         4.405419         0.811208        -0.577716
 H         2.477347         0.328122         2.674478
