19
Iteration:  1447charge 0 multiplicity 1
 C         4.364800        -1.711301         0.917699
 C         3.383458        -0.702900         0.399911
 O         2.117705        -1.459650         0.209839
 C         1.450356        -0.222984         0.066492
 C         0.018583        -0.029474         0.172706
 C         2.032323         0.510608        -1.160833
 C         3.385065         0.589071        -0.489520
 C         2.658864         0.565148         0.881178
 O         2.774764         1.056497         2.099604
 H         5.388785        -1.318309         0.971704
 H         4.071925        -1.763036         2.057349
 H         4.358863        -2.673983         0.303925
 H        -0.451458        -0.301342         1.171135
 H        -0.205602         1.020653        -0.141713
 H        -0.639658        -0.765508        -0.415399
 H         1.756438         0.007810        -2.136606
 H         1.601467         1.557785        -1.267724
 H         4.267460         1.119331        -0.636113
 H         2.823793         2.019700         2.126153
