19
Iteration:   976charge 0 multiplicity 1
 C         4.238195        -1.637657         1.053635
 C         3.357456        -0.660131         0.353938
 O         2.164335        -1.331337         0.008610
 C         1.500759        -0.093124        -0.042374
 C         0.020282        -0.141938         0.304267
 C         2.096522         0.574395        -1.287347
 C         3.389245         0.588509        -0.491619
 C         2.616869         0.575821         0.877457
 O         2.788547         0.829794         2.237875
 H         3.850359        -1.837399         2.136405
 H         4.294695        -2.608751         0.606202
 H         5.266865        -1.367439         1.251832
 H        -0.067211        -1.161962         0.510043
 H        -0.342995         0.469825         1.124956
 H        -0.548126         0.195875        -0.552553
 H         2.005996        -0.102478        -2.195916
 H         1.710711         1.524698        -1.506289
 H         4.367319         1.221509        -0.612605
 H         2.358707         1.655955         2.504457
