19
Iteration:  2988
 C         4.266712        -1.677131         1.364302
 C         3.296268        -0.911025         0.453993
 O         2.018560        -1.490608         0.271277
 C         1.432306        -0.205648         0.093420
 C         0.063640         0.210838         0.742654
 C         1.929810         0.266653        -1.270032
 C         3.323352         0.289522        -0.774644
 C         2.881883         0.493266         0.633265
 O         2.963704         1.472504         1.566174
 H         4.759592        -0.954600         2.113336
 H         3.704987        -2.455201         1.991630
 H         5.185172        -2.201047         0.909183
 H         0.051685        -0.440492         1.573924
 H         0.221478         1.277675         0.979205
 H        -0.892472         0.162119         0.197878
 H         1.598916        -0.489019        -2.047603
 H         1.692511         1.340076        -1.447190
 H         4.096699         0.775831        -1.461957
 H         2.313494         2.111457         1.290719
