19
Iteration:  3212charge 0 multiplicity 1
 C         4.434325        -1.522962         0.967916
 C         3.204693        -0.886029         0.640322
 O         1.860117        -1.486293         0.380797
 C         1.451304        -0.095284         0.129424
 C        -0.006675         0.333806         0.479375
 C         2.079849         0.113301        -1.223777
 C         3.406200         0.123832        -0.609584
 C         2.747568         0.484354         0.696568
 O         2.886847         1.436772         1.719026
 H         4.968297        -0.939570         1.787965
 H         4.311766        -2.554584         1.485624
 H         5.077632        -1.675796         0.075677
 H        -0.549314        -0.397457         1.118283
 H         0.040138         1.270844         1.043139
 H        -0.509731         0.462044        -0.441565
 H         1.798785        -0.692973        -1.925416
 H         1.735930         1.066256        -1.721205
 H         4.509883         0.075630        -0.907805
 H         3.614519         2.003629         1.358608
