19
Iteration:  3794
 C         4.197185        -1.749805         1.032863
 C         3.287083        -0.865808         0.454657
 O         2.084950        -1.403650        -0.117666
 C         1.477546        -0.037670        -0.037001
 C         0.168762        -0.008606         0.543125
 C         2.080302         0.658614        -1.254224
 C         3.445341         0.524682        -0.410927
 C         2.664956         0.436229         0.804467
 O         2.763859         1.060725         2.046103
 H         3.727450        -2.764401         1.302947
 H         5.132451        -1.990390         0.550169
 H         4.530088        -1.427235         2.040317
 H        -0.613334         0.419740        -0.065309
 H        -0.240508        -1.029646         0.557123
 H         0.050212         0.323889         1.652408
 H         1.995843         0.010962        -2.179955
 H         1.617000         1.621320        -1.408540
 H         4.395804         1.205287        -0.566982
 H         2.739688         2.060549         2.083436
