19
Iteration:  4638charge 0 multiplicity 1
 C         4.337013        -1.883521         0.842532
 C         3.322317        -0.830835         0.458609
 O         2.036228        -1.386269         0.108620
 C         1.442372        -0.066048         0.065303
 C        -0.052862        -0.178765         0.301667
 C         2.121856         0.610416        -1.138094
 C         3.411766         0.467107        -0.356599
 C         2.751331         0.491283         0.915925
 O         2.806624         1.440518         1.919893
 H         5.013244        -2.121774        -0.025774
 H         4.909926        -1.525820         1.684470
 H         3.847903        -2.921054         1.015514
 H        -0.343926        -0.949586        -0.446141
 H        -0.215213        -0.484536         1.422471
 H        -0.608438         0.699782         0.177178
 H         2.208892        -0.162949        -1.963020
 H         1.714226         1.682025        -1.259758
 H         4.310392         0.942721        -0.495597
 H         2.441894         1.113551         2.787475
