19
Iteration:  2788charge 0 multiplicity 1
 C         4.308902        -1.567676         1.178523
 C         3.315313        -0.841501         0.387716
 O         2.083133        -1.521316         0.318457
 C         1.478978        -0.076000         0.108032
 C         0.029787         0.125395         0.617391
 C         1.809242         0.282355        -1.252327
 C         3.369322         0.127294        -0.777559
 C         2.747090         0.489374         0.776349
 O         2.964571         1.519455         1.645264
 H         5.409221        -1.626384         0.956375
 H         4.258600        -0.975916         2.196374
 H         3.964698        -2.622638         1.391929
 H         0.017894        -0.392872         1.599924
 H         0.031287         1.152777         0.890398
 H        -0.703166        -0.156368        -0.125581
 H         1.435308        -0.403110        -2.050549
 H         1.417632         1.295119        -1.522568
 H         4.212360         0.665756        -1.274339
 H         3.262182         1.065493         2.473648
