19
Iteration:  4833charge 0 multiplicity 1
 C         4.290551        -1.941723         0.953289
 C         3.252200        -0.909863         0.370810
 O         2.077579        -1.405995        -0.004392
 C         1.463356        -0.071068         0.019458
 C         0.042708        -0.235401         0.441879
 C         2.169868         0.787229        -1.148594
 C         3.491713         0.526045        -0.388765
 C         2.639286         0.440203         0.909944
 O         2.763196         1.465721         1.890932
 H         4.565388        -2.670663         0.125844
 H         5.196653        -1.459515         1.396105
 H         3.849154        -2.354334         1.934752
 H        -0.644044        -0.400397        -0.422951
 H        -0.026577        -1.326587         0.909669
 H        -0.373687         0.446160         1.173984
 H         1.965870         0.349561        -2.123012
 H         1.647989         1.735534        -1.059932
 H         4.482654         1.056212        -0.313603
 H         2.459139         0.978859         2.711177
