19
Iteration:  1243charge 0 multiplicity 1
 C         4.441813        -1.715512         0.874608
 C         3.338738        -0.832902         0.468263
 O         2.093160        -1.437856         0.148077
 C         1.447466        -0.019952         0.032715
 C        -0.058557        -0.074839         0.094984
 C         2.083480         0.649905        -1.157029
 C         3.364855         0.677225        -0.416942
 C         2.708203         0.435273         0.904670
 O         2.730473         0.973691         2.188682
 H         4.526483        -1.933155         1.909339
 H         4.560469        -2.656476         0.233885
 H         5.505459        -1.482156         0.673366
 H        -0.508888        -0.425726         1.020864
 H        -0.286753         0.965289        -0.038499
 H        -0.304079        -0.807617        -0.679724
 H         2.035299         0.132891        -2.096461
 H         1.640494         1.710458        -1.105780
 H         4.296969         1.131925        -0.679899
 H         2.211386         1.793949         2.199546
