19
Iteration:  4415charge 0 multiplicity 1
 C         4.524560        -1.549058         0.746164
 C         3.233833        -0.913568         0.601865
 O         1.934832        -1.568581         0.305637
 C         1.408204        -0.221746         0.089746
 C        -0.073349         0.175490         0.253634
 C         2.135883         0.364729        -1.286753
 C         3.294931         0.459395        -0.436822
 C         2.684908         0.462779         0.897535
 O         2.959696         1.334269         1.981830
 H         5.180003        -1.717894        -0.116099
 H         5.216795        -0.879925         1.360219
 H         4.370302        -2.406497         1.401073
 H        -0.656057        -0.195722        -0.559871
 H        -0.450408        -0.300094         1.087964
 H        -0.110770         1.275791         0.200941
 H         2.275316        -0.227798        -2.269465
 H         1.708218         1.329690        -1.617222
 H         4.282652         0.736604        -0.570633
 H         2.129955         1.232189         2.538354
