19
Iteration:  3538
 C         4.443323        -1.582388         0.852966
 C         3.228355        -0.844181         0.523558
 O         2.027515        -1.495957         0.250539
 C         1.408369        -0.076579         0.093286
 C        -0.035315         0.290506         0.308910
 C         2.084787         0.388431        -1.218184
 C         3.446425         0.355114        -0.550039
 C         2.697888         0.509751         0.808750
 O         2.854630         1.032650         2.030334
 H         4.443068        -1.874853         1.903165
 H         4.543142        -2.630036         0.518441
 H         5.302786        -0.951971         0.722235
 H        -0.766391        -0.574222         0.292630
 H        -0.123841         0.625797         1.353446
 H        -0.253168         1.023780        -0.407966
 H         1.799779        -0.324404        -1.984942
 H         1.700725         1.363600        -1.618093
 H         4.419514         0.888494        -0.799853
 H         2.304052         1.805488         2.130442
