19
Iteration:   716
 C         4.420187        -1.747153         0.758992
 C         3.202933        -0.829013         0.395276
 O         2.022484        -1.328192        -0.139569
 C         1.486847         0.010528        -0.011080
 C        -0.019338        -0.249522         0.243169
 C         2.261297         0.704555        -1.136468
 C         3.498689         0.620549        -0.251531
 C         2.654508         0.449417         1.005254
 O         2.690718         1.089175         2.275765
 H         4.088665        -2.566294         1.352389
 H         4.837028        -2.288130        -0.092894
 H         5.192248        -1.253838         1.260290
 H        -0.650116         0.400436        -0.355076
 H        -0.312516        -1.255463        -0.096784
 H        -0.365738        -0.200308         1.304551
 H         2.305297         0.040461        -1.941488
 H         1.882800         1.676488        -1.521891
 H         4.531307         0.901743        -0.305603
 H         1.786306         1.305055         2.605623
