19
Iteration:  1514charge 0 multiplicity 1
 C         4.414452        -1.650403         0.900318
 C         3.220780        -0.909047         0.526217
 O         2.071669        -1.504895         0.030902
 C         1.472191        -0.057135        -0.013077
 C         0.024163        -0.063729         0.513917
 C         2.199032         0.688785        -1.248672
 C         3.462178         0.388115        -0.462395
 C         2.661714         0.405933         0.868412
 O         2.562971         1.247913         1.982331
 H         4.810084        -1.427149         1.889293
 H         4.092351        -2.741144         1.160630
 H         5.331629        -1.735358         0.293748
 H         0.340005         0.061829         1.586057
 H        -0.548709         0.850828         0.183240
 H        -0.473327        -1.088054         0.486626
 H         2.119029         0.412540        -2.309462
 H         1.996308         1.825716        -1.214795
 H         4.543009         0.661311        -0.505171
 H         2.935052         2.093745         1.624279
