19
Iteration:  3984
 C         4.228287        -1.765204         1.158888
 C         3.265811        -0.900286         0.404468
 O         2.068754        -1.348680        -0.072098
 C         1.466723        -0.062970         0.001758
 C         0.037757        -0.172211         0.673325
 C         2.103440         0.644199        -1.250101
 C         3.483011         0.500491        -0.525924
 C         2.704186         0.443124         0.775534
 O         2.770700         1.213838         1.921445
 H         3.533666        -2.558117         1.476837
 H         5.180511        -2.176447         0.659432
 H         4.525173        -1.209296         2.087130
 H        -0.107750         0.507409         1.601261
 H        -0.650553         0.226747        -0.125370
 H        -0.194153        -1.218878         0.801373
 H         2.205058         0.205853        -2.242443
 H         1.740472         1.692033        -1.359517
 H         4.510453         0.820949        -0.578499
 H         3.121128         2.060043         1.649792
