19
Iteration:   999
 C         4.255294        -1.513146         1.116447
 C         3.232751        -0.760656         0.367151
 O         2.028514        -1.380774        -0.136525
 C         1.446131         0.006884        -0.088102
 C        -0.072526        -0.320436         0.360166
 C         2.211276         0.675461        -1.213271
 C         3.482752         0.596710        -0.442689
 C         2.702567         0.452225         0.912151
 O         2.833959         0.931843         2.211584
 H         4.006647        -1.816265         2.205838
 H         4.346152        -2.521996         0.620970
 H         5.271664        -1.166154         1.121412
 H        -0.111868        -1.351008         0.569093
 H        -0.430436         0.312407         1.118214
 H        -0.668528        -0.110078        -0.526340
 H         2.135731         0.058232        -2.159946
 H         1.844536         1.689251        -1.451307
 H         4.513052         0.965296        -0.630719
 H         2.960729         1.915240         2.214123
