19
Iteration:  1652
 C         4.308935        -1.743424         1.032271
 C         3.313049        -0.778303         0.447219
 O         2.099563        -1.479247         0.176622
 C         1.413728        -0.133576         0.032523
 C        -0.018042        -0.079452         0.485761
 C         2.073246         0.448113        -1.277406
 C         3.378256         0.545418        -0.503501
 C         2.689650         0.469275         0.827622
 O         2.888536         1.336197         1.886649
 H         3.846956        -2.734698         1.186648
 H         5.110970        -1.903548         0.216317
 H         4.778910        -1.343496         1.946865
 H        -0.533747        -0.893008        -0.088213
 H        -0.138429        -0.001415         1.586736
 H        -0.317044         0.899556         0.011149
 H         2.200002        -0.124071        -2.216663
 H         1.700659         1.447206        -1.602289
 H         4.312949         1.143899        -0.566032
 H         2.097088         1.502710         2.405071
