19
Iteration:  4507charge 0 multiplicity 1
 C         4.206756        -1.773198         1.138131
 C         3.377913        -0.823221         0.366004
 O         2.078350        -1.401247        -0.090935
 C         1.453631        -0.067233         0.040321
 C         0.026230        -0.109787         0.576654
 C         2.112324         0.522521        -1.267305
 C         3.415099         0.467205        -0.454371
 C         2.686592         0.501270         0.830395
 O         2.759957         1.339837         1.915715
 H         4.126823        -2.711261         0.536996
 H         5.265750        -1.530163         1.057841
 H         3.872431        -1.646258         2.243266
 H        -0.464746        -1.013374         0.223476
 H         0.211907        -0.576180         1.597838
 H        -0.563999         0.730130         0.570629
 H         1.992832        -0.030558        -2.229095
 H         1.942376         1.610235        -1.530535
 H         4.386037         1.054898        -0.644901
 H         3.239954         0.934816         2.631199
