19
Iteration:  1544
 C         4.416136        -1.766460         0.960022
 C         3.451925        -0.833731         0.376114
 O         2.127682        -1.457138         0.057031
 C         1.478385        -0.116339         0.186081
 C         0.045301         0.060434         0.336680
 C         2.021638         0.506933        -1.231454
 C         3.360925         0.568692        -0.507330
 C         2.680897         0.371812         0.892479
 O         2.585677         1.241640         2.036591
 H         4.491327        -1.542127         2.024595
 H         3.841594        -2.768387         0.982095
 H         5.429741        -1.863126         0.518255
 H        -0.310976        -0.036575         1.359189
 H        -0.104021         1.121004         0.154934
 H        -0.655923        -0.603958        -0.175600
 H         1.936967        -0.239380        -2.066183
 H         1.550430         1.514059        -1.408897
 H         4.221843         1.195504        -0.612888
 H         3.486601         1.611968         2.002392
