19
Iteration:   466charge 0 multiplicity 1
 C         4.486482        -1.817434         0.706187
 C         3.300299        -0.872429         0.368046
 O         2.079210        -1.449377        -0.109529
 C         1.519019        -0.108696         0.051709
 C         0.067757         0.146750         0.233759
 C         2.176450         0.865293        -1.049842
 C         3.426383         0.712832        -0.248584
 C         2.670965         0.234648         0.992601
 O         2.421468         0.902079         2.181484
 H         4.301976        -2.658720         1.344821
 H         4.919919        -2.456758        -0.077984
 H         5.245341        -1.211491         1.180980
 H        -0.073484         1.137953         0.704985
 H        -0.382786         0.238793        -0.741363
 H        -0.610109        -0.530311         0.784540
 H         2.250469         0.540963        -2.061004
 H         1.649453         1.764441        -0.924846
 H         4.386726         1.314081        -0.199493
 H         3.286392         1.112352         2.619263
