19
Iteration:  3567charge 0 multiplicity 1
 C         4.589223        -1.566426         0.861099
 C         3.325865        -0.880117         0.453567
 O         1.854264        -1.427963         0.228425
 C         1.488679        -0.059640         0.079813
 C         0.068640         0.313624         0.331019
 C         2.023108         0.437329        -1.328275
 C         3.405716         0.321761        -0.639015
 C         2.706791         0.389624         0.938956
 O         2.712536         1.006301         2.150996
 H         4.674177        -1.113672         1.914222
 H         4.704311        -2.676813         1.031329
 H         5.621971        -1.361164         0.467834
 H        -0.377140        -0.390484         1.000059
 H         0.034463         1.222025         0.950784
 H        -0.578659         0.370391        -0.631271
 H         1.807139        -0.331220        -2.171340
 H         1.746721         1.478675        -1.590232
 H         4.366929         0.601039        -0.923514
 H         2.393107         1.898752         1.952097
