19
Iteration:  1983charge 0 multiplicity 1
 C         4.285414        -1.620744         1.145235
 C         3.203797        -0.872855         0.424796
 O         1.917261        -1.354997         0.147348
 C         1.401795        -0.004884         0.072879
 C        -0.018442        -0.125655         0.495127
 C         2.018660         0.477606        -1.288622
 C         3.425493         0.290897        -0.544690
 C         2.691307         0.487224         0.825696
 O         3.158377         1.308580         1.841731
 H         4.215656        -2.664865         0.826725
 H         5.299486        -1.365502         0.846650
 H         4.427465        -1.656637         2.208175
 H        -0.171279        -0.028600         1.632014
 H        -0.899287         0.314991        -0.036813
 H        -0.209436        -1.230566         0.354907
 H         1.577397        -0.054030        -2.116236
 H         1.863220         1.577459        -1.398748
 H         4.474074         0.527751        -0.792204
 H         2.888380         2.188685         1.508806
