19
Iteration:   644charge 0 multiplicity 1
 C         4.437839        -1.790346         0.779931
 C         3.322982        -0.792539         0.357147
 O         2.102907        -1.417861        -0.140079
 C         1.534014        -0.005677         0.057853
 C         0.007834        -0.020839         0.190960
 C         2.147779         0.705799        -1.118331
 C         3.465208         0.622444        -0.249093
 C         2.642748         0.349785         1.015099
 O         2.484576         1.045868         2.258457
 H         3.928900        -2.513756         1.481691
 H         4.890835        -2.413668        -0.074928
 H         5.259707        -1.169548         1.191903
 H        -0.500669        -0.083145        -0.768572
 H        -0.381799        -0.886920         0.758080
 H        -0.262658         0.741882         0.888233
 H         2.022529         0.116536        -2.075971
 H         1.874158         1.688966        -1.366067
 H         4.420588         1.053323        -0.529156
 H         3.404388         1.035224         2.629785
