19
Iteration:   312charge 0 multiplicity 1
 C         4.442511        -1.646361         0.813519
 C         3.155256        -0.890648         0.447931
 O         1.949455        -1.323388        -0.289615
 C         1.443587         0.010928        -0.054861
 C        -0.110660        -0.065912         0.095868
 C         2.314292         0.816089        -1.048874
 C         3.516873         0.487703        -0.172771
 C         2.627463         0.320460         1.050694
 O         2.708496         0.857477         2.330081
 H         4.357372        -2.409702         1.576208
 H         4.825711        -2.031014        -0.139618
 H         5.085510        -0.756058         1.233247
 H        -0.246416         0.831484         0.735089
 H        -0.542321         0.019614        -0.943000
 H        -0.203810        -1.025942         0.724216
 H         2.484574         0.482957        -2.227802
 H         1.988087         1.903875        -1.048503
 H         4.438171         0.920913        -0.119182
 H         3.365311         1.556944         2.414001
