19
Iteration:  3337
 C         4.431895        -1.477156         1.230975
 C         3.240717        -0.959228         0.378570
 O         1.929939        -1.524827         0.272857
 C         1.404997        -0.176042         0.033289
 C        -0.022124         0.242261         0.475626
 C         2.016986         0.409256        -1.305053
 C         3.361341         0.206698        -0.629463
 C         2.690660         0.417871         0.787551
 O         3.021114         1.312336         1.845643
 H         5.421500        -1.534799         0.678838
 H         4.365283        -1.012482         2.230350
 H         4.212859        -2.573895         1.506571
 H         0.003431         0.530683         1.581844
 H        -0.386877         1.043782        -0.218990
 H        -0.777003        -0.671052         0.384429
 H         1.843038        -0.274850        -2.196458
 H         1.957675         1.493022        -1.532958
 H         4.338337         0.622727        -1.056278
 H         3.077411         2.239551         1.495376
