19
Iteration:   486charge 0 multiplicity 1
 C         4.364999        -1.831088         0.655153
 C         3.305666        -0.764994         0.408798
 O         2.076907        -1.388615        -0.066223
 C         1.528449         0.020919        -0.001884
 C         0.012309        -0.018815         0.218098
 C         2.224859         0.778115        -1.121845
 C         3.486860         0.672395        -0.259542
 C         2.699658         0.419654         0.991689
 O         2.459250         0.872367         2.286474
 H         3.860632        -2.713279         1.158274
 H         4.714983        -2.398543        -0.264262
 H         5.231181        -1.440480         1.321865
 H        -0.201979         0.572911         1.150351
 H        -0.578633         0.243347        -0.675413
 H        -0.241625        -1.113493         0.426916
 H         2.180838         0.334980        -2.085516
 H         1.923746         1.890272        -1.173868
 H         4.519942         1.029697        -0.412453
 H         3.294230         0.980017         2.777245
