19
Iteration:  2608
 C         4.391084        -1.644766         1.138812
 C         3.272833        -0.813449         0.438735
 O         1.980551        -1.515470         0.355210
 C         1.477575        -0.173385         0.155377
 C         0.046187         0.205661         0.660964
 C         1.903198         0.255359        -1.401555
 C         3.301626         0.185293        -0.727157
 C         2.776132         0.528564         0.740790
 O         2.969724         1.504086         1.665781
 H         4.431532        -1.297087         2.189521
 H         4.159773        -2.678264         1.018999
 H         5.395202        -1.505549         0.636783
 H         0.033413         0.284228         1.744667
 H        -0.236841         1.244039         0.434305
 H        -0.807708        -0.411676         0.456074
 H         1.614386        -0.470483        -2.162955
 H         1.666607         1.265487        -1.710822
 H         4.256843         0.536680        -1.197490
 H         3.028543         1.137560         2.600668
