19
Iteration:  1709charge 0 multiplicity 1
 C         4.449262        -1.672201         0.998636
 C         3.311696        -0.845539         0.499389
 O         2.009748        -1.513398         0.140591
 C         1.456696        -0.137860         0.058229
 C         0.001718         0.041554         0.528707
 C         2.069670         0.442195        -1.215516
 C         3.435448         0.394849        -0.562342
 C         2.718527         0.473248         0.809335
 O         2.732862         1.370044         1.882596
 H         4.540576        -2.539535         0.327378
 H         5.492902        -1.087090         0.959990
 H         4.396433        -2.073369         2.044199
 H        -0.647542         0.114728        -0.373361
 H        -0.216879        -0.871495         1.176710
 H        -0.025416         1.058055         1.014266
 H         2.058643        -0.179176        -2.158828
 H         1.617770         1.503061        -1.262479
 H         4.469716         0.582599        -0.874109
 H         1.882335         1.869194         1.804716
