19
Iteration:  2950charge 0 multiplicity 1
 C         4.286650        -1.587571         1.240987
 C         3.250127        -0.851557         0.494695
 O         1.933851        -1.389046         0.371106
 C         1.395542        -0.063694         0.069560
 C         0.034762         0.018518         0.642606
 C         1.980881         0.168255        -1.303949
 C         3.332444         0.226748        -0.755028
 C         2.759595         0.530896         0.629827
 O         3.086677         1.469743         1.649994
 H         4.564527        -0.963409         2.052870
 H         3.779286        -2.425311         1.652201
 H         5.124941        -1.865407         0.660772
 H         0.007037        -0.534814         1.642873
 H        -0.210356         1.043983         0.995269
 H        -0.807950        -0.350626         0.040574
 H         1.667516        -0.552715        -2.040400
 H         1.606326         1.131127        -1.662933
 H         4.195345         0.708253        -1.120227
 H         4.032733         1.663875         1.635301
