19
Iteration:   286
 C         4.437983        -1.779404         0.737662
 C         3.329334        -0.798642         0.364566
 O         2.089899        -1.413212        -0.131102
 C         1.491639        -0.010568         0.032788
 C        -0.006064         0.117478         0.115353
 C         2.226017         0.748630        -1.098316
 C         3.439309         0.625186        -0.257233
 C         2.621728         0.281494         1.058055
 O         2.508710         0.827812         2.353465
 H         4.055680        -2.626598         1.328154
 H         4.737962        -2.196372        -0.219043
 H         5.200521        -1.237932         1.216556
 H        -0.105429         0.886177         0.854842
 H        -0.317637         0.492541        -0.796298
 H        -0.339626        -0.779442         0.485840
 H         2.289210         0.243382        -1.982676
 H         2.002840         1.849778        -1.301820
 H         4.435926         1.180075        -0.404645
 H         2.739867         1.767916         2.265026
