19
Iteration:  3483
 C         4.245699        -1.839698         1.066423
 C         3.223509        -0.797366         0.464545
 O         2.010149        -1.374050         0.094617
 C         1.383053        -0.026145         0.172160
 C        -0.042280        -0.195962         0.414404
 C         2.084417         0.566467        -1.199568
 C         3.471788         0.341801        -0.493959
 C         2.718243         0.475160         0.870907
 O         2.960492         1.426131         1.828874
 H         3.594196        -2.681389         1.358922
 H         4.883157        -2.160027         0.193657
 H         4.848193        -1.567947         1.922137
 H        -0.544857        -0.157230        -0.625794
 H        -0.145097        -1.152528         0.968248
 H        -0.366855         0.608038         1.059937
 H         1.797298         0.094076        -2.143451
 H         2.024738         1.680433        -1.252595
 H         4.416812         0.732028        -0.840831
 H         3.714307         1.928750         1.474074
