19
Iteration:  4968
 C         4.343610        -1.639001         0.948645
 C         3.234772        -0.780008         0.435462
 O         2.070878        -1.431347         0.051581
 C         1.430334        -0.114162         0.043557
 C         0.013202         0.002675         0.318745
 C         2.108169         0.581286        -1.213001
 C         3.412659         0.511992        -0.478435
 C         2.628317         0.486820         0.919339
 O         2.815651         1.071175         2.075537
 H         4.545867        -2.557553         0.399519
 H         5.269530        -1.050697         1.041684
 H         4.138410        -1.959619         1.987076
 H        -0.543093        -0.748184        -0.288442
 H        -0.288852        -0.048125         1.342247
 H        -0.236692         1.108712         0.047022
 H         2.064266        -0.073583        -2.054578
 H         1.680178         1.591966        -1.390843
 H         4.382820         0.824032        -0.902052
 H         3.512266         0.521023         2.520696
