19
Iteration:  4359charge 0 multiplicity 1
 C         4.324477        -1.663116         1.109341
 C         3.333219        -0.763860         0.390670
 O         2.065738        -1.440271         0.121669
 C         1.446415        -0.088191         0.048672
 C         0.065146        -0.037701         0.504005
 C         2.032964         0.499506        -1.271685
 C         3.440293         0.354517        -0.663378
 C         2.699402         0.422860         0.832362
 O         2.714419         1.346841         1.954155
 H         4.298096        -2.672333         0.557452
 H         5.359324        -1.306082         1.285876
 H         3.936263        -1.793569         2.121821
 H        -0.574072         0.071972        -0.329092
 H        -0.186622        -0.897708         1.052227
 H         0.012276         0.819216         1.239136
 H         1.791036        -0.200837        -2.120770
 H         1.655062         1.552991        -1.472239
 H         4.445936         0.731690        -1.003617
 H         3.439977         0.948241         2.475630
