19
Iteration:  1795
 C         4.438785        -1.629306         1.025195
 C         3.249565        -0.828759         0.502563
 O         1.912511        -1.451323         0.278699
 C         1.416177        -0.023372         0.073522
 C         0.014345        -0.162840         0.403999
 C         2.056329         0.470157        -1.272147
 C         3.334387         0.416373        -0.558187
 C         2.731958         0.531254         0.742689
 O         2.915646         1.269141         1.901816
 H         5.350572        -1.158526         0.819931
 H         4.393950        -1.703016         2.168647
 H         4.247550        -2.625316         0.680594
 H        -0.485404        -1.067960         0.055948
 H        -0.215047         0.155020         1.450709
 H        -0.479476         0.733260        -0.049285
 H         1.983523        -0.036902        -2.224901
 H         1.652676         1.486814        -1.431895
 H         4.330588         0.741293        -0.806584
 H         3.832462         1.547963         1.866991
