19
Iteration:  2920charge 0 multiplicity 1
 C         4.462493        -1.577778         0.991459
 C         3.178882        -0.877859         0.639067
 O         1.875636        -1.475363         0.436524
 C         1.370638        -0.049089         0.167360
 C        -0.104983         0.074302         0.518780
 C         2.011017         0.180828        -1.323573
 C         3.303074         0.190258        -0.666953
 C         2.788546         0.544888         0.699692
 O         3.147873         1.590714         1.647170
 H         5.054381        -1.055010         1.777587
 H         4.203762        -2.589836         1.470660
 H         5.132535        -1.710430         0.114287
 H        -0.328303        -0.146330         1.572332
 H        -0.471595         1.003794         0.119832
 H        -0.684278        -0.657266        -0.026525
 H         1.765610        -0.759644        -1.901288
 H         1.732026         1.120941        -1.825560
 H         4.278999         0.330408        -1.003304
 H         3.590420         1.244487         2.479688
