19
Iteration:   455
 C         4.560281        -1.773183         0.721013
 C         3.348281        -0.953480         0.384813
 O         2.067701        -1.491201        -0.240416
 C         1.487001        -0.120015         0.003882
 C        -0.000873         0.213531         0.223178
 C         2.135358         0.823730        -0.985850
 C         3.438412         0.611004        -0.189504
 C         2.666765         0.319347         1.013464
 O         2.422313         0.917105         2.213360
 H         4.187848        -2.306541         1.556364
 H         4.923220        -2.222734        -0.208616
 H         5.373041        -1.146706         1.077340
 H         0.210290         1.251727         0.472414
 H        -0.514078         0.093613        -0.702679
 H        -0.426514        -0.315302         1.100766
 H         1.986952         0.605442        -2.026460
 H         1.856405         1.825499        -0.849305
 H         4.464331         1.086419        -0.230774
 H         3.226236         1.282239         2.616867
