19
Iteration:   943
 C         4.515741        -1.622587         0.942709
 C         3.296029        -0.853202         0.386242
 O         2.116558        -1.490205         0.021340
 C         1.501488        -0.151742        -0.007120
 C        -0.040781         0.082658         0.271799
 C         2.118362         0.608156        -1.159940
 C         3.371817         0.614445        -0.404120
 C         2.702694         0.401924         0.902297
 O         2.625504         0.992304         2.156434
 H         4.191754        -2.005250         1.993063
 H         4.890903        -2.395188         0.307405
 H         5.263941        -0.814875         1.016360
 H        -0.606528        -0.828201         0.416204
 H        -0.326447         0.733619         1.079715
 H        -0.504925         0.367591        -0.678944
 H         2.145796         0.002748        -2.132077
 H         1.649501         1.556967        -1.256330
 H         4.464625         0.985567        -0.542499
 H         2.142494         1.833126         2.201158
