19
Iteration:  1455charge 0 multiplicity 1
 C         4.376743        -1.723060         0.934708
 C         3.336219        -0.698434         0.447144
 O         2.154273        -1.448530         0.148238
 C         1.479405        -0.181803         0.061535
 C         0.011456        -0.055816         0.243434
 C         2.056814         0.505654        -1.241919
 C         3.338103         0.544172        -0.494096
 C         2.612002         0.507641         0.896457
 O         2.790579         1.120209         2.129049
 H         5.415296        -1.341819         1.037958
 H         3.914288        -2.138691         1.804381
 H         4.289113        -2.508898         0.179384
 H        -0.257784        -0.001342         1.286485
 H        -0.293401         0.902867        -0.120747
 H        -0.545878        -0.784300        -0.286890
 H         2.108060         0.119333        -2.297761
 H         1.693503         1.512236        -1.151411
 H         4.262228         1.079053        -0.708661
 H         2.540660         2.066211         2.089852
