19
Iteration:  3081charge 0 multiplicity 1
 C         4.365657        -1.852134         0.895257
 C         3.337636        -0.788648         0.606445
 O         1.901946        -1.450622         0.533979
 C         1.459857        -0.123456         0.232957
 C        -0.064634         0.109738         0.184279
 C         1.900051         0.134134        -1.234725
 C         3.337542         0.283108        -0.598994
 C         2.832551         0.676552         0.722718
 O         3.038349         1.561193         1.835753
 H         5.306884        -1.669932         0.473828
 H         4.455868        -1.650528         1.952341
 H         4.114161        -2.866038         0.766279
 H        -0.354242         0.426325         1.238258
 H        -0.419471         0.656562        -0.681720
 H        -0.572229        -0.839083         0.156633
 H         1.799233        -0.684122        -1.890973
 H         1.659293         1.160919        -1.436199
 H         4.255009         0.455223        -1.199887
 H         3.455374         2.418867         1.455239
