19
Iteration:  1059
 C         4.485732        -1.767031         0.778108
 C         3.359203        -0.850782         0.395607
 O         2.118778        -1.451043         0.054771
 C         1.398213        -0.127494         0.081538
 C        -0.048007        -0.049360         0.130561
 C         2.156044         0.635037        -1.114421
 C         3.392851         0.533573        -0.291203
 C         2.665889         0.434469         0.999823
 O         2.622098         1.168945         2.183353
 H         4.158496        -2.592074         1.405796
 H         4.997086        -2.160527        -0.195651
 H         5.287220        -1.226135         1.382533
 H        -0.715629        -0.389313         0.983579
 H        -0.181804         1.090767         0.132537
 H        -0.321301        -0.421844        -0.905483
 H         2.019943         0.060288        -2.045057
 H         1.763834         1.742563        -1.110293
 H         4.344119         1.067645        -0.589683
 H         2.638441         2.071323         1.814111
