19
Iteration:  2987charge 0 multiplicity 1
 C         4.266960        -1.676129         1.367678
 C         3.294024        -0.911498         0.457454
 O         2.023820        -1.490155         0.272031
 C         1.433063        -0.207458         0.091720
 C         0.066386         0.209097         0.738790
 C         1.930722         0.269995        -1.274678
 C         3.313885         0.294442        -0.781457
 C         2.883613         0.490555         0.631396
 O         2.966022         1.473476         1.573306
 H         4.735866        -0.948406         2.107382
 H         3.686087        -2.469506         1.983998
 H         5.181343        -2.203246         0.927274
 H         0.040545        -0.447629         1.598858
 H         0.219426         1.279323         1.002714
 H        -0.884734         0.151644         0.188289
 H         1.565243        -0.486560        -2.051071
 H         1.677507         1.337241        -1.440048
 H         4.109971         0.738994        -1.463086
 H         2.343902         2.122149         1.263294
