19
Iteration:   509
 C         4.270592        -1.801275         0.706096
 C         3.270658        -0.750392         0.420918
 O         2.082370        -1.231159        -0.194557
 C         1.500297         0.063294        -0.005241
 C        -0.061244        -0.204520         0.259856
 C         2.312096         0.752413        -1.196063
 C         3.535786         0.525026        -0.294604
 C         2.626151         0.424409         1.042966
 O         2.561296         0.969253         2.424867
 H         3.881423        -2.771993         1.087157
 H         4.617476        -2.197505        -0.328653
 H         5.072180        -1.259512         1.299625
 H        -0.196024        -0.138943         1.359590
 H        -0.690297         0.351003        -0.420371
 H        -0.172403        -1.260332        -0.126308
 H         2.211004         0.208894        -2.097592
 H         2.227766         1.859410        -1.410297
 H         4.579281         0.921942        -0.602291
 H         3.473838         0.819531         2.784710
