19
Iteration:  4748charge 0 multiplicity 1
 C         4.516790        -1.485525         0.820237
 C         3.270361        -0.777341         0.424770
 O         2.037170        -1.521565         0.259600
 C         1.426851         0.001535         0.011103
 C        -0.029158         0.190414         0.191775
 C         2.131596         0.428506        -1.272241
 C         3.379503         0.442949        -0.471541
 C         2.657980         0.480788         0.898148
 O         2.711140         0.967598         2.202110
 H         4.660634        -2.517698         0.406989
 H         5.431195        -1.009241         0.599913
 H         4.349397        -1.775234         1.895124
 H        -0.646012        -0.152253        -0.653671
 H        -0.349857        -0.496498         1.085272
 H        -0.253387         1.254662         0.261501
 H         1.893220        -0.179353        -2.167760
 H         1.854967         1.521983        -1.571977
 H         4.369944         0.891449        -0.786196
 H         3.229622         0.385084         2.755544
