19
Iteration:  4750
 C         4.521863        -1.504689         0.825575
 C         3.266828        -0.779631         0.420295
 O         2.036846        -1.521615         0.271410
 C         1.430661         0.003427         0.023037
 C        -0.027984         0.185073         0.181029
 C         2.114777         0.422784        -1.288884
 C         3.370268         0.461178        -0.448126
 C         2.673205         0.482630         0.898200
 O         2.707122         0.966364         2.189792
 H         4.667782        -2.528497         0.431415
 H         5.399677        -0.936041         0.546633
 H         4.418784        -1.767375         1.888189
 H        -0.600472        -0.124093        -0.677513
 H        -0.332105        -0.449202         1.012023
 H        -0.297187         1.282724         0.335404
 H         1.892571        -0.176175        -2.196156
 H         1.887250         1.537374        -1.539094
 H         4.390936         0.895098        -0.767509
 H         3.232713         0.335223         2.693688
