19
Iteration:  2657charge 0 multiplicity 1
 C         4.375905        -1.782504         1.036610
 C         3.223463        -0.866948         0.494266
 O         1.982833        -1.397653         0.284896
 C         1.411567        -0.107203         0.064822
 C         0.033288        -0.006752         0.760005
 C         1.985637         0.228080        -1.346953
 C         3.394468         0.187659        -0.618798
 C         2.730075         0.560069         0.800498
 O         3.012838         1.749188         1.601659
 H         4.807614        -1.424156         1.992073
 H         3.668075        -2.682830         1.251544
 H         5.024694        -2.243835         0.294030
 H         0.150258         0.107758         1.891086
 H        -0.636323         0.802814         0.458044
 H        -0.600443        -0.932401         0.651705
 H         1.883956        -0.434586        -2.249155
 H         1.850500         1.311299        -1.630149
 H         4.423591         0.267882        -1.017377
 H         2.418846         1.514999         2.303541
