19
Iteration:   997
 C         4.247183        -1.525290         1.120757
 C         3.232139        -0.758481         0.366004
 O         2.039944        -1.381030        -0.130902
 C         1.455536         0.013762        -0.079378
 C        -0.054094        -0.330300         0.350726
 C         2.197596         0.662573        -1.223418
 C         3.485494         0.611424        -0.464059
 C         2.699427         0.474144         0.927154
 O         2.830151         0.917087         2.214302
 H         3.954666        -1.781414         2.185320
 H         4.248377        -2.421438         0.572918
 H         5.257704        -1.152444         1.091929
 H        -0.149950        -1.355062         0.632188
 H        -0.475989         0.328512         1.107126
 H        -0.688899        -0.011775        -0.468913
 H         2.161099         0.020101        -2.131529
 H         1.902520         1.617386        -1.451349
 H         4.558940         0.952863        -0.689509
 H         2.918194         1.887915         2.268415
