19
Iteration:  2930charge 0 multiplicity 1
 C         4.405100        -1.556972         1.081044
 C         3.240921        -0.844518         0.464643
 O         1.882658        -1.458286         0.404321
 C         1.357953        -0.081250         0.170404
 C        -0.174907         0.066841         0.604882
 C         2.013069         0.180494        -1.375711
 C         3.400461         0.164037        -0.604680
 C         2.795170         0.590103         0.730480
 O         3.118620         1.555089         1.639116
 H         4.859258        -0.950289         1.867800
 H         4.059912        -2.550490         1.481986
 H         5.135225        -1.755547         0.290614
 H        -0.389060        -0.218946         1.670741
 H        -0.639872         1.042004         0.633217
 H        -0.651371        -0.627494        -0.066829
 H         1.759843        -0.720698        -2.001720
 H         1.871028         1.036415        -2.044872
 H         4.329837         0.183228        -1.066404
 H         3.956795         1.241918         2.113241
