19
Iteration:  4385
 C         4.487681        -1.605425         0.900626
 C         3.246360        -0.848760         0.484337
 O         1.991675        -1.439779         0.192496
 C         1.394895        -0.062878         0.078030
 C        -0.039347         0.103311         0.394644
 C         2.091536         0.342416        -1.254994
 C         3.419898         0.337812        -0.522059
 C         2.749231         0.498618         0.799461
 O         2.768468         1.308231         1.984756
 H         5.024670        -2.166223         0.166299
 H         5.169298        -0.766281         1.355627
 H         4.278932        -2.105503         1.869373
 H        -0.713761         0.043378        -0.497182
 H        -0.296501        -0.777992         1.036157
 H        -0.139444         1.004541         0.959045
 H         1.975624        -0.476643        -2.021049
 H         1.798115         1.283122        -1.678254
 H         4.352272         0.765123        -0.738394
 H         2.946396         0.565643         2.578232
