19
Iteration:  3475
 C         4.260719        -1.863671         1.068315
 C         3.322989        -0.851935         0.529666
 O         1.967313        -1.385735         0.112166
 C         1.435621        -0.044209         0.142971
 C        -0.020008        -0.199624         0.393758
 C         2.094432         0.663708        -1.132317
 C         3.427000         0.334306        -0.528130
 C         2.667333         0.459902         0.881556
 O         2.959691         1.449074         1.750187
 H         3.491278        -2.629092         1.293076
 H         4.996475        -2.154057         0.297567
 H         4.755187        -1.677393         2.014142
 H        -0.677485        -0.014678        -0.554163
 H        -0.277307        -1.273370         0.798519
 H        -0.376106         0.485469         1.158144
 H         1.724621         0.127496        -2.028566
 H         1.912755         1.774508        -1.198731
 H         4.414412         0.909416        -0.796619
 H         3.715534         1.904386         1.375619
