19
Iteration:   229charge 0 multiplicity 1
 C         4.398097        -1.797855         0.734999
 C         3.291818        -0.889976         0.329228
 O         1.985120        -1.305354        -0.269622
 C         1.478594         0.037414        -0.000601
 C         0.099808        -0.012021         0.322829
 C         2.312438         0.742052        -1.127052
 C         3.552483         0.552745        -0.162349
 C         2.646630         0.379618         1.023797
 O         2.476947         0.940657         2.282951
 H         4.160776        -2.529576         1.525593
 H         4.975340        -2.263603        -0.081667
 H         5.195607        -1.144455         1.046060
 H        -0.278457         0.894877         0.711192
 H        -0.541687        -0.263620        -0.542427
 H        -0.176990        -0.817680         0.994127
 H         2.275068         0.344732        -2.081771
 H         2.249548         1.897282        -1.077033
 H         4.617402         0.875284        -0.123843
 H         1.531148         1.134882         2.392175
