19
Iteration:  1082
 C         4.435455        -1.731589         0.590245
 C         3.284445        -0.772144         0.576001
 O         2.020065        -1.419138         0.164203
 C         1.472418         0.000840        -0.040980
 C        -0.006899        -0.070491         0.168282
 C         2.277430         0.460368        -1.241482
 C         3.464954         0.593295        -0.314066
 C         2.659299         0.513094         1.004481
 O         2.559903         1.084797         2.250200
 H         4.196069        -2.757575         0.839300
 H         4.961607        -1.719397        -0.391894
 H         5.241891        -1.537546         1.347049
 H        -0.177000        -0.255173         1.265395
 H        -0.515886         0.933814         0.009104
 H        -0.336267        -0.909810        -0.495652
 H         2.175781        -0.260832        -2.071637
 H         1.806166         1.465381        -1.430283
 H         4.575693         0.854060        -0.369890
 H         2.505239         2.055049         2.203189
