19
Iteration:  4711
 C         4.436088        -1.631716         0.994759
 C         3.262774        -0.868940         0.382115
 O         2.056166        -1.452378        -0.023331
 C         1.455535         0.007474        -0.011469
 C         0.026530         0.037967         0.405694
 C         2.086404         0.556392        -1.240041
 C         3.388029         0.454841        -0.431410
 C         2.696671         0.424320         0.857664
 O         2.723995         1.145631         2.086986
 H         4.848353        -2.341433         0.303307
 H         5.150825        -0.938641         1.547907
 H         3.973637        -2.191845         1.835342
 H        -0.427725        -0.881409        -0.045005
 H        -0.052110         0.086045         1.483425
 H        -0.518467         0.961196         0.126512
 H         1.987958        -0.099933        -2.097466
 H         1.827883         1.562009        -1.384352
 H         4.301699         0.941737        -0.629035
 H         2.964639         0.487568         2.771644
