19
Iteration:  2864charge 0 multiplicity 1
 C         4.422500        -1.802253         0.908682
 C         3.294603        -0.826051         0.569735
 O         2.003149        -1.415581         0.421543
 C         1.469950        -0.096475         0.138852
 C        -0.081200         0.157857         0.509057
 C         1.952651         0.135308        -1.218025
 C         3.348373         0.222216        -0.638140
 C         2.834666         0.575325         0.758490
 O         2.898482         1.576102         1.736650
 H         5.352245        -1.207310         0.848321
 H         4.399686        -2.371806         1.874360
 H         4.508598        -2.636659         0.188266
 H        -0.111501         0.477719         1.570306
 H        -0.544771         0.906984        -0.095651
 H        -0.500489        -0.814873         0.376421
 H         1.594037        -0.760840        -1.772258
 H         1.699501         1.119276        -1.656165
 H         4.354241         0.392397        -0.993571
 H         2.693576         2.384648         1.221537
