19
Iteration:  3192
 C         4.392233        -1.566892         1.181529
 C         3.223459        -0.931959         0.474058
 O         1.955372        -1.509665         0.420693
 C         1.432922        -0.065412         0.027529
 C         0.107075         0.348235         0.549210
 C         1.964165         0.106476        -1.425662
 C         3.323100         0.222542        -0.673858
 C         2.752447         0.486131         0.702788
 O         2.900898         1.411934         1.797460
 H         4.986346        -0.941193         1.846379
 H         3.914940        -2.424293         1.729904
 H         5.144129        -2.065686         0.569130
 H        -0.201979        -0.389464         1.326750
 H         0.236441         1.361307         1.068058
 H        -0.689386         0.357346        -0.231447
 H         1.835135        -0.759927        -2.113370
 H         1.587511         1.050586        -1.871017
 H         4.249575         0.637211        -1.152224
 H         3.652282         1.984227         1.738132
