19
Iteration:  1162
 C         4.362976        -1.664755         1.056764
 C         3.369755        -0.839077         0.318895
 O         2.138957        -1.506952        -0.110507
 C         1.423695        -0.098082        -0.004886
 C         0.012469        -0.055506         0.240540
 C         2.064870         0.854635        -0.998821
 C         3.428966         0.497554        -0.410551
 C         2.681410         0.322198         0.897207
 O         2.678670         1.036533         2.106994
 H         3.916295        -1.937209         1.999088
 H         4.738529        -2.471345         0.565157
 H         5.068126        -0.899040         1.201781
 H        -0.222359         0.257087         1.264140
 H        -0.477651         0.544652        -0.530345
 H        -0.417113        -1.071235         0.149048
 H         1.861775         0.620390        -2.054042
 H         1.655919         1.763707        -0.785075
 H         4.362968         1.020642        -0.508184
 H         3.069495         1.919189         1.986765
