19
Iteration:  2477charge 0 multiplicity 1
 C         4.242591        -1.909871         1.067755
 C         3.229042        -0.854704         0.535673
 O         2.047637        -1.501713         0.284135
 C         1.449124        -0.063733         0.192953
 C         0.021171         0.042445         0.746900
 C         1.981658         0.341783        -1.252073
 C         3.422111         0.207339        -0.623386
 C         2.792841         0.622163         0.663591
 O         2.961863         1.723464         1.459874
 H         3.633047        -2.725933         1.603271
 H         4.764385        -2.436815         0.261613
 H         5.053151        -1.486077         1.783022
 H         0.045082        -0.106345         1.794849
 H        -0.629272         0.886885         0.541096
 H        -0.574134        -0.775184         0.440086
 H         1.682008        -0.240207        -2.152390
 H         1.616000         1.359959        -1.336805
 H         4.484796         0.480934        -0.728556
 H         2.885252         1.328100         2.322161
