19
Iteration:  4124charge 0 multiplicity 1
 C         4.255586        -1.803713         1.009580
 C         3.323055        -0.808767         0.489430
 O         2.012031        -1.458137         0.084779
 C         1.413557        -0.110494         0.051834
 C         0.006095        -0.076259         0.536492
 C         2.125568         0.493452        -1.298484
 C         3.446091         0.474287        -0.526511
 C         2.704784         0.550384         0.791316
 O         2.861809         1.325153         1.963026
 H         5.042612        -2.081422         0.347595
 H         4.610454        -1.369536         2.033885
 H         3.729361        -2.670108         1.423268
 H         0.047513        -0.785768         1.415052
 H        -0.409200         0.868089         0.897711
 H        -0.638770        -0.434053        -0.233803
 H         2.040284        -0.118517        -2.250006
 H         1.813624         1.554425        -1.512617
 H         4.498946         0.705804        -0.901424
 H         2.755932         2.273605         1.796199
