19
Iteration:  4462charge 0 multiplicity 1
 C         4.378810        -1.820226         0.861854
 C         3.287561        -0.877143         0.438197
 O         2.007845        -1.418846         0.249403
 C         1.398233        -0.046850         0.087370
 C        -0.073814        -0.139688         0.339140
 C         2.133300         0.548271        -1.226090
 C         3.469597         0.456340        -0.447412
 C         2.718106         0.493349         0.916702
 O         2.818010         1.447949         1.895885
 H         4.774027        -2.357333         0.010929
 H         5.300122        -1.264791         1.239155
 H         4.026763        -2.532725         1.667898
 H        -0.487524        -1.081034        -0.046028
 H        -0.360451        -0.105266         1.401770
 H        -0.440849         0.622489        -0.251497
 H         1.914130        -0.049264        -2.167545
 H         1.787203         1.565118        -1.444736
 H         4.501767         0.893894        -0.657080
 H         2.795665         0.927790         2.715291
