19
Iteration:  3150charge 0 multiplicity 1
 C         4.198555        -1.577944         1.289467
 C         3.214165        -0.850830         0.472005
 O         1.991292        -1.492496         0.257596
 C         1.441387        -0.033203         0.038877
 C         0.131162         0.141635         0.640482
 C         1.962027         0.267711        -1.345717
 C         3.369470         0.150076        -0.737487
 C         2.840921         0.491272         0.705222
 O         2.994201         1.404149         1.747555
 H         5.112544        -1.048311         1.234004
 H         3.653354        -1.596204         2.211254
 H         4.347821        -2.597335         1.003406
 H         0.198620        -0.118946         1.699800
 H        -0.411343         1.111519         0.422964
 H        -0.661686        -0.600553         0.298344
 H         1.713489        -0.481874        -2.099723
 H         1.795049         1.309126        -1.466220
 H         4.342739         0.566918        -0.949377
 H         3.022613         2.240804         1.228900
