19
Iteration:  4213
 C         4.481416        -1.609938         0.902201
 C         3.253470        -0.822015         0.513768
 O         1.926088        -1.498913         0.283784
 C         1.427915        -0.101569        -0.008185
 C        -0.092639         0.066737         0.293356
 C         2.097862         0.414054        -1.289780
 C         3.402885         0.421943        -0.498391
 C         2.743297         0.501082         0.881290
 O         2.851212         1.190074         2.071617
 H         4.741987        -2.220782         0.021913
 H         5.323534        -0.915658         1.100979
 H         4.335189        -2.365339         1.740233
 H        -0.533965        -0.945691         0.482422
 H        -0.133193         0.788670         1.157149
 H        -0.677550         0.560221        -0.448505
 H         2.182443        -0.356228        -2.080098
 H         1.929531         1.431456        -1.784913
 H         4.302461         0.831183        -0.914855
 H         3.082377         2.121955         1.949920
