19
Iteration:  4513charge 0 multiplicity 1
 C         4.256274        -1.712356         1.138605
 C         3.370494        -0.833480         0.348085
 O         2.061258        -1.396012        -0.106626
 C         1.413573        -0.071233         0.023405
 C         0.008373        -0.085586         0.606784
 C         2.136425         0.501812        -1.224656
 C         3.443921         0.482873        -0.482874
 C         2.738082         0.474628         0.831529
 O         2.742164         1.314572         1.912342
 H         4.077275        -2.767810         0.856170
 H         5.382190        -1.596566         1.153836
 H         3.779190        -1.665637         2.077394
 H        -0.538597        -0.874579         0.005944
 H         0.170204        -0.559941         1.556795
 H        -0.649643         0.863446         0.630865
 H         2.075442        -0.103749        -2.164577
 H         1.771406         1.497443        -1.421092
 H         4.306300         1.056256        -0.757565
 H         3.133618         0.825433         2.689876
