19
Iteration:  1887
 C         4.451656        -1.640660         0.839595
 C         3.248052        -0.852904         0.459457
 O         1.959666        -1.457195         0.283933
 C         1.439570        -0.014381         0.073879
 C         0.039798         0.100901         0.539058
 C         2.121069         0.277427        -1.294979
 C         3.470074         0.268116        -0.530196
 C         2.665435         0.521791         0.789684
 O         2.779636         1.321921         1.963015
 H         4.665422        -1.804324         1.922892
 H         4.265567        -2.651361         0.521815
 H         5.415288        -1.419474         0.317850
 H        -0.358344        -0.574663         1.313546
 H        -0.205732         1.086270         0.861796
 H        -0.702364         0.102978        -0.244300
 H         2.034268        -0.252663        -2.242199
 H         1.960388         1.361569        -1.490250
 H         4.447956         0.717202        -0.831953
 H         2.186354         2.111623         1.836597
