19
Iteration:  2835
 C         4.305812        -1.681111         1.014333
 C         3.205621        -0.858155         0.505245
 O         1.941667        -1.493799         0.423579
 C         1.417557        -0.133582         0.058758
 C         0.051455         0.078144         0.759422
 C         2.124514         0.243367        -1.378781
 C         3.378749         0.277399        -0.639575
 C         2.777259         0.529506         0.706566
 O         2.849727         1.558681         1.659931
 H         5.266706        -1.355597         0.517966
 H         4.506430        -1.570001         2.163291
 H         4.179956        -2.709463         0.581058
 H         0.241021         0.154488         1.847533
 H        -0.605666         0.966342         0.547062
 H        -0.510349        -0.860417         0.505000
 H         1.912471        -0.430601        -2.255119
 H         1.895243         1.241868        -1.766388
 H         4.383798         0.552798        -0.831012
 H         3.693903         1.950081         1.469636
