19
Iteration:  1227charge 0 multiplicity 1
 C         4.338898        -1.710962         0.882757
 C         3.294838        -0.679787         0.406720
 O         2.080033        -1.384999         0.055246
 C         1.462330        -0.114217         0.006802
 C        -0.075638        -0.183071         0.151143
 C         2.139702         0.634941        -1.219200
 C         3.441283         0.665250        -0.431467
 C         2.687593         0.547249         0.983772
 O         2.838672         0.943005         2.282572
 H         4.213290        -1.913799         2.019667
 H         4.019049        -2.627010         0.462807
 H         5.345173        -1.335571         0.654430
 H        -0.364930        -0.275670         1.232860
 H        -0.708559         0.626095        -0.329905
 H        -0.475537        -1.052480        -0.471582
 H         2.167962        -0.051342        -2.120640
 H         1.713842         1.545110        -1.533048
 H         4.481012         1.028808        -0.691121
 H         2.217222         1.654231         2.443532
