19
Iteration:  1178
 C         4.365608        -1.600062         1.105751
 C         3.265338        -0.907074         0.359871
 O         2.041446        -1.409051        -0.157080
 C         1.468539        -0.113076        -0.021262
 C        -0.079402        -0.217624         0.275712
 C         2.138024         0.812274        -1.173359
 C         3.442706         0.641779        -0.355669
 C         2.658498         0.358585         0.925313
 O         2.793383         0.987947         2.131020
 H         4.005393        -1.735284         2.157767
 H         4.549658        -2.695249         0.618086
 H         5.406082        -1.137166         1.239682
 H        -0.221007         0.235596         1.266580
 H        -0.730679         0.448659        -0.313112
 H        -0.439824        -1.239601         0.154582
 H         2.069391         0.638429        -2.264965
 H         1.963864         1.949056        -0.873852
 H         4.406714         1.177539        -0.486635
 H         3.284167         1.824498         1.943030
