19
Iteration:  2783charge 0 multiplicity 1
 C         4.328208        -1.550846         1.202304
 C         3.294777        -0.844892         0.378540
 O         2.087749        -1.506421         0.341798
 C         1.422953        -0.114181         0.116636
 C         0.031032         0.103287         0.613927
 C         1.846400         0.257959        -1.252913
 C         3.365011         0.189160        -0.785022
 C         2.780079         0.491727         0.740499
 O         2.992240         1.508671         1.662587
 H         5.335079        -1.605951         0.850269
 H         4.322610        -1.078496         2.112942
 H         3.908919        -2.530447         1.249126
 H        -0.311770        -0.378918         1.547606
 H        -0.051696         1.231956         0.813970
 H        -0.856270         0.028564        -0.081373
 H         1.435751        -0.418624        -1.994273
 H         1.499251         1.259675        -1.474068
 H         4.268719         0.487394        -1.336793
 H         3.125872         1.025208         2.490541
