19
Iteration:  2497
 C         4.278061        -1.872306         1.074944
 C         3.331402        -0.865838         0.489813
 O         2.000705        -1.429737         0.403730
 C         1.436956        -0.131064         0.152493
 C         0.028077         0.019845         0.601456
 C         1.906949         0.364354        -1.191701
 C         3.303110         0.272792        -0.644977
 C         2.775787         0.480639         0.817162
 O         3.060179         1.680805         1.427530
 H         3.564196        -2.689293         1.469582
 H         4.966716        -2.375229         0.401960
 H         4.961886        -1.567589         1.940520
 H        -0.119557        -0.232268         1.636641
 H        -0.087812         1.063328         0.275239
 H        -0.632057        -0.630429        -0.024813
 H         1.637806        -0.257818        -2.071518
 H         1.601889         1.393411        -1.386731
 H         4.121936         0.847283        -1.097588
 H         3.061455         1.662747         2.384042
