19
Iteration:  3518charge 0 multiplicity 1
 C         4.363213        -1.665754         0.968424
 C         3.256454        -0.833416         0.454577
 O         1.931332        -1.432297         0.192745
 C         1.431128        -0.075812         0.024626
 C         0.001430         0.102376         0.400022
 C         2.095649         0.361185        -1.313127
 C         3.370323         0.462720        -0.492818
 C         2.661546         0.481934         0.880241
 O         2.966394         1.188064         2.044714
 H         4.184333        -2.369356         1.775518
 H         4.565635        -2.406031         0.151489
 H         5.320826        -1.192390         1.135510
 H        -0.665571        -0.664075        -0.158102
 H        -0.204124        -0.093585         1.509040
 H        -0.324972         1.071492         0.040869
 H         2.225182        -0.258279        -2.188757
 H         1.860317         1.376633        -1.724108
 H         4.457139         0.747112        -0.749176
 H         2.824759         2.134376         1.782601
