19
Iteration:  2370charge 0 multiplicity 1
 C         4.409039        -1.595926         0.969100
 C         3.189748        -0.830905         0.542034
 O         1.914994        -1.379365         0.461470
 C         1.355412        -0.142479         0.105033
 C        -0.156858         0.151460         0.442200
 C         1.932708         0.186986        -1.282574
 C         3.381059         0.231542        -0.647421
 C         2.811337         0.584177         0.730800
 O         3.156865         1.397094         1.786846
 H         4.500353        -1.613928         2.018754
 H         4.442241        -2.615040         0.713853
 H         5.331095        -1.106377         0.627405
 H        -0.604527        -0.353711         1.299985
 H        -0.142734         1.253732         0.558835
 H        -0.585572        -0.143898        -0.503787
 H         1.694366        -0.622732        -2.021267
 H         1.655426         1.136917        -1.684315
 H         4.365787         0.224581        -1.101490
 H         3.888986         0.987844         2.242567
