19
Iteration:  1495charge 0 multiplicity 1
 C         4.411216        -1.648474         0.899019
 C         3.278438        -0.914820         0.379675
 O         1.891226        -1.378545        -0.031971
 C         1.435410        -0.011805         0.012735
 C         0.065038        -0.145377         0.573287
 C         2.338408         0.574205        -1.241026
 C         3.499375         0.382348        -0.319955
 C         2.602629         0.429869         0.898183
 O         2.648751         1.261289         1.987813
 H         4.979621        -1.082426         1.672719
 H         4.240259        -2.629985         1.338575
 H         5.121144        -1.689720         0.060221
 H        -0.087112        -0.132540         1.686484
 H        -0.663116         0.518156         0.040436
 H        -0.188583        -1.211608         0.370411
 H         2.263699        -0.004389        -2.141290
 H         2.021495         1.595253        -1.417197
 H         4.534355         0.829579        -0.566167
 H         2.329042         2.131437         1.664715
