19
Iteration:  1102charge 0 multiplicity 1
 C         4.335977        -1.599526         0.573636
 C         3.184834        -0.777862         0.628182
 O         2.000836        -1.386358         0.093660
 C         1.517440        -0.103357        -0.005291
 C        -0.002730        -0.087581         0.289278
 C         2.383625         0.496649        -1.269194
 C         3.486383         0.568251        -0.324233
 C         2.617373         0.502836         0.976431
 O         2.587112         1.039760         2.217644
 H         4.110362        -2.656126         0.778915
 H         4.996937        -1.634024        -0.434293
 H         5.104223        -1.504146         1.431591
 H        -0.125108         0.064264         1.419641
 H        -0.485136         0.817523        -0.165377
 H        -0.388603        -1.099437         0.015658
 H         2.743478        -0.330629        -1.923305
 H         2.198288         1.481640        -1.966142
 H         4.564257         0.892321        -0.439906
 H         2.352939         1.959227         2.319091
