19
Iteration:  3607charge 0 multiplicity 1
 C         4.320073        -1.717320         0.968694
 C         3.250301        -0.850656         0.373681
 O         2.019576        -1.428535         0.049078
 C         1.383132        -0.123137        -0.041609
 C         0.004822         0.072723         0.524615
 C         2.163833         0.517324        -1.297131
 C         3.452098         0.472461        -0.472754
 C         2.644584         0.421948         0.886870
 O         2.867273         1.152716         2.112382
 H         4.892571        -1.116159         1.689512
 H         3.777668        -2.434970         1.515514
 H         4.958259        -2.063202         0.168151
 H         0.042708         0.262266         1.598264
 H        -0.272650         1.045164         0.023095
 H        -0.722892        -0.700292         0.167608
 H         2.092921        -0.159375        -2.163375
 H         1.816887         1.474460        -1.670026
 H         4.421410         0.923135        -0.607637
 H         2.943372         2.091583         1.816810
