19
Iteration:    37charge 0 multiplicity 1
 C         4.242081        -1.924431         0.669666
 C         3.286580        -0.839193         0.459337
 O         2.086365        -1.331653        -0.081734
 C         1.539400         0.059598        -0.097551
 C         0.112219        -0.070598         0.366485
 C         2.403287         0.790319        -1.216472
 C         3.490074         0.612176        -0.236033
 C         2.622379         0.427847         0.974294
 O         2.435385         1.025057         2.242818
 H         3.846450        -2.730050         1.404563
 H         4.619034        -2.347524        -0.305411
 H         5.099031        -1.414249         1.069979
 H         0.124878         0.225856         1.538749
 H        -0.628137         0.540868        -0.221665
 H        -0.197133        -1.127173         0.278246
 H         2.447013         0.123757        -2.283624
 H         2.102404         1.793995        -1.257631
 H         4.299144         1.328046        -0.274853
 H         2.346834         0.291124         2.865290
