19
Iteration:  3169
 C         4.256448        -1.642718         1.336648
 C         3.363231        -0.793068         0.389789
 O         1.938675        -1.475135         0.318428
 C         1.434092        -0.125076         0.157752
 C         0.073207         0.239583         0.655527
 C         1.970027         0.193399        -1.342489
 C         3.436833         0.277440        -0.762869
 C         2.743779         0.543329         0.637921
 O         2.893522         1.304041         1.681889
 H         5.090544        -0.988096         1.621097
 H         3.633194        -2.019717         2.201321
 H         4.808611        -2.491496         0.905527
 H        -0.132072        -0.160025         1.704513
 H         0.109401         1.362799         0.752506
 H        -0.727878        -0.081324        -0.009414
 H         1.744336        -0.600019        -2.088323
 H         1.707145         1.213536        -1.756460
 H         4.403124         0.515087        -1.378834
 H         3.481004         2.106536         1.595775
