19
Iteration:   902charge 0 multiplicity 1
 C         4.559525        -1.577791         0.722813
 C         3.198644        -0.956581         0.522057
 O         2.050183        -1.471329        -0.036461
 C         1.427666        -0.053781        -0.007714
 C        -0.090107        -0.084852         0.302108
 C         2.280894         0.600767        -1.181204
 C         3.487305         0.462522        -0.188532
 C         2.617870         0.388774         0.966885
 O         2.524857         1.214302         2.104263
 H         4.596076        -2.543045         1.316359
 H         5.072976        -1.802874        -0.218711
 H         5.164344        -0.883424         1.283783
 H        -0.263596        -0.937691         0.893158
 H        -0.310557         0.779621         0.865274
 H        -0.637199         0.071410        -0.611162
 H         2.339709         0.222579        -2.248613
 H         1.911755         1.682179        -1.179113
 H         4.564046         0.820484        -0.384119
 H         3.328796         1.785299         1.995432
