19
Iteration:  1413
 C         4.518425        -1.493511         0.956522
 C         3.254199        -0.810806         0.498725
 O         1.967297        -1.411931         0.055774
 C         1.394658        -0.070878         0.019201
 C        -0.102685        -0.083408         0.164027
 C         2.085192         0.547919        -1.282517
 C         3.368543         0.406321        -0.415896
 C         2.657007         0.454666         0.931784
 O         2.894604         1.048420         2.204778
 H         5.378448        -1.194865         0.290266
 H         4.783155        -1.093036         1.981823
 H         4.565620        -2.570701         1.204986
 H        -0.312914        -0.947454         0.815284
 H        -0.563822         0.823619         0.588713
 H        -0.419693        -0.178346        -0.896974
 H         1.859396        -0.222755        -2.074341
 H         1.879379         1.604385        -1.525107
 H         4.362304         0.730614        -0.671832
 H         3.332814         1.892764         2.092459
