19
Iteration:  1586
 C         4.480779        -1.542401         0.895274
 C         3.175460        -0.835606         0.530157
 O         1.919419        -1.401045         0.268147
 C         1.451012        -0.043128        -0.052940
 C        -0.016061        -0.101947         0.281728
 C         2.157799         0.506159        -1.350018
 C         3.370366         0.373389        -0.438451
 C         2.665995         0.527773         0.886223
 O         2.824200         1.172930         2.089681
 H         4.772323        -1.788240         1.916118
 H         4.369103        -2.569831         0.515200
 H         5.346408        -1.106093         0.381109
 H        -0.261129        -1.066602         0.728138
 H        -0.266058         0.766300         0.853400
 H        -0.544361        -0.085011        -0.682848
 H         2.166844        -0.084742        -2.281214
 H         1.741538         1.515451        -1.445089
 H         4.337266         0.756138        -0.681497
 H         3.769357         1.144868         2.386281
