19
Iteration:   531
 C         4.341466        -1.802797         0.803975
 C         3.230738        -0.853928         0.393701
 O         2.025416        -1.343583        -0.198179
 C         1.458291         0.025649        -0.030964
 C         0.004671        -0.180312         0.182715
 C         2.251827         0.866099        -1.073574
 C         3.469414         0.623090        -0.178066
 C         2.650341         0.377367         1.004446
 O         2.675932         1.004842         2.234748
 H         3.840917        -2.621396         1.371414
 H         4.703930        -2.316401        -0.153603
 H         5.095652        -1.204320         1.364366
 H         0.035115        -0.592243         1.192693
 H        -0.511634         0.761507         0.096649
 H        -0.415881        -0.836648        -0.617125
 H         2.333122         0.371903        -2.031686
 H         1.732489         1.834379        -1.230066
 H         4.477763         1.160080        -0.181644
 H         3.364232         0.644596         2.804346
