19
Iteration:  2088charge 0 multiplicity 1
 C         4.457814        -1.627631         0.921443
 C         3.227354        -0.895712         0.601946
 O         1.907774        -1.510254         0.383551
 C         1.447327        -0.084427         0.129434
 C         0.004003         0.286729         0.509058
 C         1.998541         0.302311        -1.306123
 C         3.405174         0.270263        -0.618294
 C         2.793001         0.428535         0.792431
 O         2.896605         1.309859         1.761703
 H         5.325071        -1.102642         0.517238
 H         4.682984        -1.468361         2.065898
 H         4.480565        -2.703008         0.560268
 H        -0.455856        -0.510943         1.046283
 H        -0.031726         1.107554         1.233142
 H        -0.654279         0.396991        -0.320464
 H         1.785696        -0.346303        -2.206577
 H         1.625443         1.302157        -1.583732
 H         4.402331         0.635748        -0.918798
 H         2.736242         2.163967         1.358876
