19
Iteration:  4684
 C         4.310080        -1.758814         1.005888
 C         3.256599        -0.862723         0.418803
 O         2.040793        -1.424418        -0.036058
 C         1.456730        -0.156046        -0.004219
 C         0.013769        -0.175142         0.529776
 C         2.185873         0.694559        -1.223135
 C         3.417735         0.565294        -0.369262
 C         2.692151         0.443574         0.829864
 O         2.820604         1.289703         1.900239
 H         4.981848        -2.382409         0.341784
 H         4.756248        -1.186646         1.794856
 H         3.651326        -2.628514         1.381910
 H        -0.483747        -1.087787         0.288156
 H        -0.037664         0.078015         1.631866
 H        -0.533933         0.651994         0.069594
 H         2.074056         0.461778        -2.322801
 H         1.944777         1.774755        -0.876002
 H         4.457832         0.967662        -0.557404
 H         2.183975         0.942092         2.581148
