19
Iteration:  1385charge 0 multiplicity 1
 C         4.401651        -1.523023         0.956362
 C         3.200676        -0.832621         0.489124
 O         2.001594        -1.485480        -0.021410
 C         1.405349        -0.160072        -0.083194
 C        -0.110504        -0.111976         0.309497
 C         2.248382         0.624086        -1.241753
 C         3.385705         0.514808        -0.304391
 C         2.623661         0.407502         0.948983
 O         2.942576         1.117291         2.082725
 H         4.914958        -1.962027         0.107497
 H         4.849778        -0.601233         1.440371
 H         4.208899        -2.228337         1.793489
 H        -0.459898        -1.117470         0.704090
 H        -0.377860         0.536908         1.171535
 H        -0.726635         0.009786        -0.628359
 H         2.314088         0.056733        -2.148061
 H         1.994598         1.715640        -1.336912
 H         4.391717         0.852293        -0.474725
 H         2.692453         2.032727         1.922561
