19
Iteration:   568
 C         4.423973        -1.710631         0.895988
 C         3.355722        -0.880635         0.332805
 O         2.170340        -1.454257        -0.222057
 C         1.455775        -0.086148        -0.001403
 C        -0.071818         0.103548         0.152138
 C         2.067022         0.865343        -0.993844
 C         3.443873         0.537746        -0.332494
 C         2.655780         0.293504         1.041851
 O         2.710837         0.970478         2.236574
 H         4.008566        -2.175320         1.773822
 H         4.868526        -2.280962         0.100491
 H         5.305103        -1.262260         1.289027
 H        -0.627780        -0.800235         0.371867
 H        -0.320843         0.812881         0.971328
 H        -0.557574         0.445433        -0.732201
 H         1.958935         0.422563        -2.001431
 H         1.807094         1.863119        -0.954355
 H         4.383321         1.000892        -0.412024
 H         1.886496         0.672555         2.644561
