19
Iteration:  3801
 C         4.189770        -1.795092         1.096837
 C         3.241461        -0.840632         0.377511
 O         2.098599        -1.375953        -0.108507
 C         1.499737         0.004303        -0.020511
 C         0.135591        -0.064766         0.534084
 C         2.062764         0.643751        -1.202167
 C         3.488646         0.529456        -0.449008
 C         2.623662         0.427449         0.866004
 O         2.785923         1.074198         1.982013
 H         3.688400        -2.730844         1.407286
 H         5.048917        -2.049690         0.450662
 H         4.685675        -1.330444         1.995622
 H        -0.593911         0.354582        -0.137370
 H        -0.123633        -1.134360         0.502115
 H        -0.037509         0.193597         1.540735
 H         2.059032         0.198518        -2.184655
 H         1.660068         1.693967        -1.252654
 H         4.300940         1.176054        -0.356712
 H         3.027671         2.038752         2.040918
