19
Iteration:  2611
 C         4.388638        -1.638217         1.144368
 C         3.291917        -0.818262         0.439785
 O         1.943891        -1.501084         0.353643
 C         1.460083        -0.179851         0.119182
 C         0.033873         0.198131         0.693496
 C         1.917132         0.238137        -1.391333
 C         3.341199         0.224897        -0.716033
 C         2.801481         0.527696         0.740175
 O         2.957278         1.498779         1.648271
 H         4.424166        -1.287753         2.192410
 H         4.114521        -2.758873         1.019112
 H         5.336008        -1.544875         0.574029
 H         0.208998         0.195996         1.754242
 H        -0.234279         1.212314         0.374282
 H        -0.775647        -0.482085         0.511655
 H         1.585215        -0.452782        -2.185160
 H         1.596038         1.294978        -1.615250
 H         4.291155         0.454227        -1.148881
 H         2.992310         1.219412         2.554008
