19
Iteration:   861charge 0 multiplicity 1
 C         4.320807        -1.910942         0.788519
 C         3.470095        -0.765753         0.474624
 O         2.237852        -1.385991        -0.005051
 C         1.449686        -0.103554         0.079507
 C         0.037161        -0.181838         0.229666
 C         2.091660         0.630339        -1.176774
 C         3.431698         0.636529        -0.421055
 C         2.683066         0.538716         0.974953
 O         2.464015         1.210024         2.188658
 H         3.807261        -2.744950         1.152123
 H         4.885592        -2.274605        -0.130052
 H         4.967883        -1.675900         1.621247
 H        -0.266227        -0.547663         1.275042
 H        -0.448634         0.816461        -0.073650
 H        -0.387474        -0.887893        -0.552058
 H         1.686688         0.172096        -2.039870
 H         1.794683         1.707782        -1.195150
 H         4.368453         1.101239        -0.514979
 H         3.316616         1.473408         2.559389
