19
Iteration:   395
 C         4.275196        -1.836400         0.743352
 C         3.263265        -0.757891         0.434482
 O         2.031231        -1.325831        -0.112640
 C         1.475063         0.007202        -0.079428
 C         0.034860        -0.084777         0.198886
 C         2.296682         0.835137        -1.162518
 C         3.523195         0.734648        -0.263650
 C         2.639978         0.406347         0.990385
 O         2.696264         0.742844         2.350978
 H         3.798922        -2.589409         1.439911
 H         4.658948        -2.485460        -0.044080
 H         5.117807        -1.378043         1.317278
 H        -0.617979         0.694391        -0.224409
 H        -0.469716        -1.007856        -0.181622
 H        -0.201360        -0.079018         1.251935
 H         2.314594         0.380771        -2.141397
 H         1.845517         1.877677        -1.194065
 H         4.511569         1.198077        -0.475146
 H         2.072989         1.499074         2.532679
