19
Iteration:  3251
 C         4.435943        -1.824584         0.941599
 C         3.192846        -0.914779         0.673601
 O         1.945552        -1.473853         0.511428
 C         1.410547        -0.121606         0.160584
 C        -0.046736         0.126662         0.322822
 C         2.012326         0.267920        -1.252124
 C         3.389227         0.297589        -0.550656
 C         2.787811         0.509336         0.800648
 O         3.023735         1.627110         1.646500
 H         5.070279        -1.483281         1.755738
 H         3.971504        -2.669998         1.423417
 H         4.826451        -2.157996        -0.031476
 H        -0.524400        -0.709478         0.881967
 H        -0.326115         1.022285         0.898031
 H        -0.496849         0.256078        -0.706790
 H         1.789418        -0.438162        -2.082101
 H         1.514210         1.202900        -1.547693
 H         4.394066         0.442741        -0.951412
 H         2.862584         2.442295         1.117915
