19
Iteration:  3418charge 0 multiplicity 1
 C         4.331169        -1.783619         0.935598
 C         3.267604        -0.871340         0.568849
 O         1.983953        -1.388947         0.258075
 C         1.489512         0.001878         0.103202
 C         0.002632         0.064007         0.386633
 C         2.092132         0.309989        -1.308114
 C         3.413206         0.329409        -0.469163
 C         2.668928         0.491748         0.872816
 O         2.883038         1.381732         1.869170
 H         4.145141        -2.741967         0.454310
 H         5.261436        -1.466091         0.396746
 H         4.530495        -1.931932         1.978888
 H        -0.436230         1.154137         0.441439
 H        -0.634578        -0.513487        -0.340845
 H        -0.136692        -0.375281         1.387944
 H         1.767398        -0.407625        -2.070178
 H         1.979545         1.368148        -1.663541
 H         4.384437         0.663084        -0.739498
 H         2.852349         2.304124         1.478672
