19
Iteration:  2296
 C         4.326862        -1.873119         1.094322
 C         3.348629        -0.854373         0.483554
 O         2.003126        -1.503850         0.338600
 C         1.475877        -0.103102         0.117116
 C         0.097319         0.179114         0.605624
 C         1.862058         0.410458        -1.251383
 C         3.331677         0.213276        -0.632367
 C         2.700052         0.458114         0.814261
 O         3.023691         1.558581         1.542103
 H         3.782107        -2.613895         1.724052
 H         4.886086        -2.560699         0.342214
 H         5.078986        -1.379936         1.720935
 H         0.187926         0.214165         1.750557
 H        -0.145953         1.265770         0.363428
 H        -0.668669        -0.545447         0.276629
 H         1.345296         0.010526        -2.148401
 H         1.756402         1.503200        -1.259682
 H         4.292653         0.565852        -0.953077
 H         2.123690         1.941359         1.736913
