19
Iteration:  1048
 C         4.450759        -1.718053         0.863271
 C         3.311076        -0.852093         0.429736
 O         2.132522        -1.511834        -0.058400
 C         1.499060        -0.159137         0.074890
 C        -0.090434        -0.014904         0.109409
 C         2.065564         0.635700        -1.017078
 C         3.431182         0.566396        -0.323450
 C         2.666569         0.367362         1.005653
 O         2.686300         1.193701         2.114466
 H         4.157758        -2.439204         1.620615
 H         4.941824        -2.341347         0.017459
 H         5.251792        -1.021779         1.280130
 H        -0.546445        -0.692790         0.912106
 H        -0.325355         1.093013         0.279735
 H        -0.627639        -0.283412        -0.861563
 H         1.945144         0.408241        -2.084302
 H         1.665900         1.732871        -0.916381
 H         4.453432         1.018228        -0.402200
 H         2.744124         2.139998         1.981273
