19
Iteration:  4558
 C         4.527785        -1.502777         1.006448
 C         3.280779        -0.845109         0.448910
 O         1.969779        -1.510484         0.191452
 C         1.404391        -0.096229        -0.003872
 C        -0.020144         0.101245         0.317845
 C         2.096417         0.486920        -1.257069
 C         3.435862         0.432097        -0.544827
 C         2.613758         0.430842         0.863145
 O         2.833553         1.100427         2.036754
 H         4.713756        -2.441357         0.525626
 H         5.462586        -0.905244         0.660167
 H         4.402941        -1.652441         2.062418
 H        -0.772080         0.226438        -0.513904
 H        -0.402137        -0.565063         1.076934
 H         0.095156         1.170492         0.736377
 H         1.857538        -0.046305        -2.252363
 H         1.757695         1.494617        -1.407489
 H         4.487300         0.793580        -0.864156
 H         2.243215         0.832872         2.786863
