19
Iteration:  2652charge 0 multiplicity 1
 C         4.328992        -1.748511         1.052749
 C         3.269421        -0.841660         0.522742
 O         1.943659        -1.415145         0.290440
 C         1.387753        -0.074648         0.079313
 C         0.072742        -0.014161         0.808329
 C         2.004595         0.249161        -1.445919
 C         3.398761         0.191955        -0.611312
 C         2.748464         0.487007         0.790303
 O         2.995294         1.718252         1.588992
 H         4.878301        -1.445695         1.949978
 H         3.725453        -2.640813         1.200275
 H         5.105338        -2.060645         0.300174
 H         0.093120         0.185814         1.852649
 H        -0.615932         0.799388         0.524562
 H        -0.478204        -0.911058         0.625110
 H         1.808077        -0.405970        -2.284444
 H         1.833343         1.272955        -1.720209
 H         4.444323         0.261628        -0.880473
 H         2.426081         1.562225         2.422241
