19
Iteration:  1700
 C         4.444067        -1.658437         0.983166
 C         3.244446        -0.849953         0.514822
 O         2.015335        -1.427820         0.110364
 C         1.510364        -0.080948         0.069636
 C         0.070347        -0.032903         0.510324
 C         2.096523         0.424325        -1.284757
 C         3.416405         0.269224        -0.559094
 C         2.750304         0.488564         0.874323
 O         2.707062         1.385747         1.901875
 H         4.402006        -2.618552         0.402199
 H         5.465504        -1.173895         0.717071
 H         4.292472        -1.841425         2.080295
 H        -0.703524        -0.024924        -0.294485
 H        -0.167213        -0.808329         1.310305
 H        -0.067673         0.876409         1.171304
 H         1.662289        -0.059325        -2.212509
 H         1.720313         1.506034        -1.439684
 H         4.370661         0.682207        -0.808181
 H         1.848793         1.856151         2.001509
