19
Iteration:  2304charge 0 multiplicity 1
 C         4.311825        -1.868071         1.107077
 C         3.361022        -0.876854         0.442713
 O         1.987989        -1.525473         0.306506
 C         1.450615        -0.075909         0.099164
 C         0.067117         0.180350         0.637290
 C         1.882686         0.361494        -1.240576
 C         3.354634         0.242389        -0.669755
 C         2.724604         0.448570         0.828047
 O         3.063505         1.610483         1.560579
 H         3.681930        -2.296132         1.817633
 H         4.841802        -2.577644         0.560677
 H         5.103232        -1.491784         1.751376
 H        -0.085789        -0.223295         1.644697
 H        -0.409004         1.212258         0.448066
 H        -0.643690        -0.543600         0.141767
 H         1.276831        -0.002267        -2.093126
 H         1.776338         1.411045        -1.127313
 H         4.317250         0.599749        -1.046827
 H         2.268406         2.051184         1.996497
