19
Iteration:   841charge 0 multiplicity 1
 C         4.347561        -1.815602         0.893671
 C         3.385388        -0.806311         0.383563
 O         2.152087        -1.364132        -0.056684
 C         1.515444        -0.043542         0.044836
 C         0.005657        -0.241904         0.271921
 C         2.113971         0.693218        -1.146028
 C         3.464819         0.649959        -0.413842
 C         2.709722         0.491391         0.994911
 O         2.504000         1.132246         2.157953
 H         3.676717        -2.567824         1.410367
 H         4.720279        -2.377144        -0.056376
 H         5.108062        -1.549450         1.701947
 H        -0.335874        -0.115335         1.381789
 H        -0.644762         0.491869        -0.374885
 H        -0.381842        -1.262854        -0.042532
 H         2.205771         0.213236        -2.218115
 H         1.671991         1.718067        -1.163083
 H         4.347382         1.131583        -0.711182
 H         3.388031         1.347931         2.532689
