19
Iteration:  2702charge 0 multiplicity 1
 C         4.444784        -1.755172         0.917581
 C         3.317153        -0.838057         0.547488
 O         1.996736        -1.442936         0.557333
 C         1.372490        -0.114065         0.176145
 C        -0.050249         0.051875         0.341187
 C         1.915183         0.269018        -1.218273
 C         3.262971         0.247277        -0.563412
 C         2.782256         0.522107         0.825195
 O         3.068939         1.615367         1.556748
 H         5.358095        -1.098110         0.986488
 H         4.209898        -2.317988         1.894143
 H         4.603206        -2.572791         0.175639
 H        -0.420698        -0.214920         1.390158
 H        -0.452750         1.080709         0.347999
 H        -0.775241        -0.489848        -0.344178
 H         1.726728        -0.464180        -2.061663
 H         1.538048         1.310033        -1.446179
 H         4.202841         0.462042        -1.135640
 H         3.197993         1.402286         2.487679
