19
Iteration:  2215charge 0 multiplicity 1
 C         4.439294        -1.708743         0.931851
 C         3.250007        -0.886333         0.415606
 O         1.992360        -1.471788         0.520390
 C         1.393976        -0.093365         0.152617
 C        -0.023066         0.283598         0.454016
 C         1.980998         0.240104        -1.276002
 C         3.275362         0.302136        -0.660732
 C         2.779561         0.484242         0.755940
 O         2.988728         1.349745         1.833879
 H         4.118674        -1.646235         1.961961
 H         4.469734        -2.646268         0.497397
 H         5.352452        -1.141175         0.865862
 H        -0.233131         0.323686         1.532250
 H        -0.168410         1.260817        -0.067255
 H        -0.737443        -0.399885        -0.092408
 H         1.800811        -0.648560        -1.890856
 H         1.513277         1.141810        -1.685002
 H         4.252040         0.599410        -1.104086
 H         3.548601         2.084106         1.474158
