19
Iteration:  4516charge 0 multiplicity 1
 C         4.280297        -1.697901         1.131050
 C         3.345087        -0.823383         0.333555
 O         2.056990        -1.402811        -0.099016
 C         1.417159        -0.064840         0.014234
 C        -0.001736        -0.084807         0.607750
 C         2.135652         0.503507        -1.213680
 C         3.456353         0.490238        -0.498831
 C         2.745297         0.449532         0.828215
 O         2.740462         1.301874         1.918829
 H         4.058424        -2.728718         1.025106
 H         5.392644        -1.561383         1.200824
 H         3.793658        -1.723581         2.129891
 H        -0.578927        -0.726188        -0.086522
 H         0.098398        -0.487904         1.608750
 H        -0.529082         0.798310         0.664187
 H         2.088654        -0.174890        -2.154852
 H         1.712591         1.503040        -1.370622
 H         4.390379         1.087281        -0.833218
 H         3.044725         0.810876         2.680112
