19
Iteration:  3468
 C         4.259743        -1.899756         1.060073
 C         3.367084        -0.899510         0.542128
 O         1.965348        -1.410241         0.148125
 C         1.496142        -0.062416         0.043317
 C        -0.052202        -0.176405         0.391451
 C         2.043195         0.702628        -1.085491
 C         3.386359         0.350457        -0.506982
 C         2.708801         0.431645         0.886018
 O         2.956285         1.500708         1.708287
 H         3.681171        -2.831797         1.179682
 H         5.089750        -2.297819         0.499109
 H         4.644746        -1.532898         2.058382
 H        -0.688905         0.096017        -0.371586
 H        -0.281808        -1.196163         0.494670
 H        -0.451370         0.426674         1.246806
 H         1.805036         0.316512        -2.106179
 H         1.736940         1.732695        -1.056281
 H         4.296986         0.925763        -0.555659
 H         3.681397         2.000749         1.365885
