19
Iteration:  3974charge 0 multiplicity 1
 C         4.226360        -1.726446         1.148939
 C         3.286578        -0.825932         0.425878
 O         2.075474        -1.441402        -0.126772
 C         1.464867         0.010512         0.000327
 C         0.095965        -0.100631         0.573169
 C         2.071367         0.590772        -1.217862
 C         3.491229         0.464700        -0.421319
 C         2.720040         0.419154         0.813884
 O         2.743531         1.196445         1.874912
 H         3.608387        -2.542687         1.590768
 H         5.002194        -2.276937         0.533209
 H         4.657503        -1.163298         2.015838
 H         0.119360         0.424902         1.650256
 H        -0.897767         0.235332         0.087723
 H        -0.103452        -1.127503         0.964009
 H         1.644211         0.195822        -2.148169
 H         1.813614         1.676478        -1.058335
 H         4.472292         0.896777        -0.699533
 H         3.071631         2.051639         1.627056
