19
Iteration:   370charge 0 multiplicity 1
 C         4.183068        -1.909072         0.870578
 C         3.401094        -0.720027         0.347345
 O         2.188169        -1.284404        -0.236244
 C         1.460657         0.012848         0.071539
 C        -0.000969        -0.067133         0.057358
 C         2.093844         0.801801        -1.020112
 C         3.457459         0.680769        -0.324061
 C         2.660556         0.418850         1.030574
 O         2.797296         0.799754         2.355723
 H         3.431247        -2.541251         1.435511
 H         4.687739        -2.581410         0.120152
 H         4.939752        -1.731459         1.587706
 H        -0.483609         0.856179        -0.325190
 H        -0.389062        -0.943487        -0.545254
 H        -0.568236        -0.268142         0.967319
 H         2.038734         0.346008        -2.149523
 H         1.674371         1.784805        -1.000740
 H         4.479752         1.157278        -0.542099
 H         2.134909         1.498274         2.573753
