19
Iteration:  3802
 C         4.196356        -1.799566         1.103950
 C         3.239962        -0.832914         0.369972
 O         2.096065        -1.374641        -0.108792
 C         1.498205         0.004411        -0.014189
 C         0.121038        -0.076232         0.526051
 C         2.066625         0.646266        -1.198757
 C         3.487002         0.528868        -0.452885
 C         2.626268         0.425742         0.869637
 O         2.788340         1.076513         1.981966
 H         3.657225        -2.746792         1.420099
 H         5.019639        -2.060176         0.432172
 H         4.690290        -1.303249         1.994885
 H        -0.569168         0.359401        -0.117785
 H        -0.100581        -1.149901         0.496077
 H        -0.033865         0.209894         1.552934
 H         2.047846         0.211684        -2.197500
 H         1.691987         1.700492        -1.233613
 H         4.329897         1.185555        -0.344858
 H         3.057814         2.039705         1.996524
