19
Iteration:  1290
 C         4.488744        -1.581455         0.781263
 C         3.254474        -0.941817         0.527700
 O         2.083472        -1.486619        -0.119389
 C         1.416562        -0.124136        -0.013556
 C        -0.073598         0.047408         0.370370
 C         2.241044         0.577830        -1.250619
 C         3.464155         0.460584        -0.237386
 C         2.618632         0.328735         1.000367
 O         2.564632         1.237273         2.117340
 H         4.497973        -2.416324         1.555445
 H         5.025448        -1.850276        -0.088757
 H         5.128330        -0.832863         1.241035
 H        -0.195036        -0.905402         0.861509
 H        -0.173674         0.744783         1.168258
 H        -0.738085         0.045308        -0.446800
 H         2.278367        -0.045641        -2.188001
 H         1.959769         1.613058        -1.410919
 H         4.473683         0.926591        -0.313008
 H         3.205196         1.935280         1.945096
