19
Iteration:  2219charge 0 multiplicity 1
 C         4.431110        -1.680128         0.915555
 C         3.223229        -0.832482         0.429507
 O         1.990511        -1.489713         0.531590
 C         1.427344        -0.102424         0.106870
 C        -0.036797         0.293251         0.471455
 C         1.976037         0.227482        -1.253834
 C         3.310754         0.288255        -0.669158
 C         2.794729         0.514209         0.730968
 O         2.969632         1.338595         1.849092
 H         4.099505        -1.950727         1.958383
 H         4.411715        -2.678138         0.335935
 H         5.417007        -1.161791         0.884780
 H        -0.142712         0.419229         1.561243
 H        -0.284991         1.285805        -0.027712
 H        -0.725655        -0.399349        -0.026903
 H         1.831503        -0.711387        -1.831000
 H         1.467172         1.016978        -1.786429
 H         4.318442         0.449788        -1.044936
 H         3.496334         2.087806         1.549078
