19
Iteration:  3788
 C         4.259703        -1.760044         1.030897
 C         3.282690        -0.832640         0.464361
 O         2.059953        -1.432939        -0.119321
 C         1.473983        -0.084353        -0.036834
 C         0.116707         0.011465         0.559227
 C         2.119895         0.643269        -1.307618
 C         3.425354         0.558209        -0.426386
 C         2.714074         0.446940         0.811386
 O         2.741348         1.051409         2.115477
 H         3.708048        -2.672762         1.103039
 H         5.204992        -1.931145         0.465353
 H         4.391887        -1.404707         2.061996
 H        -0.608859         0.708032         0.001136
 H        -0.268761        -1.014367         0.649852
 H         0.266904         0.481864         1.513325
 H         1.940380        -0.027555        -2.136368
 H         1.750670         1.676112        -1.511547
 H         4.342835         0.967317        -0.717975
 H         2.511908         1.959669         1.913839
