19
Iteration:  3501charge 0 multiplicity 1
 C         4.292172        -1.803265         0.959293
 C         3.234400        -0.868485         0.453801
 O         1.936787        -1.415878         0.119460
 C         1.421178        -0.064434         0.002278
 C        -0.056346        -0.085986         0.416972
 C         2.120469         0.466595        -1.288004
 C         3.415678         0.406281        -0.491997
 C         2.780000         0.541803         0.878808
 O         2.971840         1.370095         2.037066
 H         3.715083        -2.320238         1.768859
 H         4.916642        -2.223877         0.182765
 H         4.918525        -1.127948         1.621592
 H        -0.656731        -0.508577        -0.321619
 H        -0.127891        -0.658430         1.327063
 H        -0.491673         0.907886         0.749541
 H         1.939749        -0.373705        -2.016519
 H         1.729748         1.437304        -1.547721
 H         4.375014         0.735319        -0.793348
 H         3.420669         2.196579         1.779254
