19
Iteration:  1687charge 0 multiplicity 1
 C         4.341624        -1.688565         0.954171
 C         3.283962        -0.858521         0.479262
 O         2.021309        -1.387272         0.142272
 C         1.477726         0.035905         0.020674
 C         0.121520        -0.104580         0.572083
 C         2.044928         0.438654        -1.337220
 C         3.450383         0.240968        -0.518963
 C         2.674476         0.489417         0.837648
 O         2.733386         1.413425         1.972496
 H         4.291777        -2.750518         0.732256
 H         5.357039        -1.190649         0.477546
 H         4.544797        -1.578440         2.059770
 H        -0.537249        -0.384625        -0.316323
 H         0.211561        -1.070167         1.210196
 H        -0.298816         0.858031         1.008582
 H         1.831240        -0.306116        -2.164954
 H         2.313952         1.510283        -1.650837
 H         4.440140         0.658517        -0.845307
 H         1.799005         1.643623         1.990144
