19
Iteration:  3670
 C         4.277780        -1.883740         0.945373
 C         3.221933        -0.852360         0.367430
 O         2.008736        -1.392310         0.112335
 C         1.408298        -0.071873        -0.016579
 C        -0.079730        -0.202066         0.259056
 C         2.095031         0.707188        -1.137352
 C         3.451686         0.484753        -0.423511
 C         2.691805         0.478418         0.936582
 O         3.028500         1.316337         2.068023
 H         5.307523        -1.911898         0.559114
 H         4.488040        -1.684980         2.044949
 H         3.905818        -2.955032         0.946980
 H        -0.583394         0.416663         1.026521
 H        -0.650438        -0.075414        -0.660290
 H        -0.297961        -1.141597         0.631793
 H         1.892352         0.258770        -2.101738
 H         1.707634         1.759648        -1.055093
 H         4.448671         0.860567        -0.718456
 H         3.156588         2.208768         1.699595
