19
Iteration:   324
 C         4.368351        -1.628005         0.873142
 C         3.193590        -0.890915         0.436822
 O         1.961968        -1.346515        -0.230726
 C         1.402290         0.003610        -0.115243
 C        -0.028813        -0.095246         0.079646
 C         2.346314         0.934107        -1.016256
 C         3.472541         0.510433        -0.167388
 C         2.540453         0.297232         1.027282
 O         2.793700         0.829451         2.292023
 H         4.273448        -2.479965         1.568496
 H         4.870688        -2.059050        -0.032300
 H         5.226604        -0.938602         1.235645
 H        -0.577684         0.769131         0.520538
 H        -0.736392        -0.336194        -0.799039
 H        -0.382220        -0.978586         0.758320
 H         2.242608         0.637073        -2.225866
 H         2.321784         2.015136        -0.837866
 H         4.417803         0.984770        -0.199278
 H         3.471685         1.512136         2.046247
