19
Iteration:  2027
 C         4.349081        -1.825564         0.972344
 C         3.374816        -0.802172         0.472294
 O         2.008654        -1.467473         0.278775
 C         1.458865        -0.072201         0.150765
 C         0.055301         0.146053         0.485626
 C         1.933239         0.280392        -1.306836
 C         3.260127         0.411272        -0.557439
 C         2.745332         0.529747         0.804128
 O         2.926500         1.366190         1.843962
 H         4.916701        -2.462706         0.269594
 H         4.975738        -1.309377         1.719898
 H         3.822764        -2.477186         1.661921
 H        -0.128536        -0.281906         1.552479
 H        -0.225304         1.207749         0.310747
 H        -0.579017        -0.435415        -0.260983
 H         1.968340        -0.461625        -2.085991
 H         1.511987         1.278831        -1.616423
 H         4.241257         0.729211        -0.907743
 H         3.181023         2.263779         1.573474
