19
Iteration:  1979
 C         4.318773        -1.604863         1.131351
 C         3.177375        -0.887016         0.435440
 O         1.884614        -1.335936         0.135865
 C         1.377709         0.037150         0.061058
 C        -0.011713        -0.154494         0.502029
 C         2.025215         0.474622        -1.265447
 C         3.443572         0.265550        -0.558884
 C         2.689919         0.458968         0.827664
 O         3.166146         1.312310         1.855349
 H         4.190052        -2.684828         0.939558
 H         5.406584        -1.366721         0.802158
 H         4.440954        -1.569001         2.258216
 H        -0.080962        -0.002623         1.551351
 H        -0.796051         0.308255        -0.137266
 H        -0.249072        -1.210806         0.361350
 H         1.617803        -0.156559        -2.131500
 H         1.862531         1.556028        -1.416760
 H         4.428959         0.684376        -0.797354
 H         2.886946         2.185370         1.536392
