19
Iteration:  1849charge 0 multiplicity 1
 C         4.385953        -1.830378         0.970116
 C         3.278263        -0.876215         0.490792
 O         2.003228        -1.477339         0.162771
 C         1.478239        -0.047865         0.047644
 C        -0.019641        -0.027364         0.588542
 C         2.090698         0.421089        -1.241773
 C         3.408707         0.477793        -0.523710
 C         2.735826         0.465158         0.859225
 O         2.778128         1.422526         1.809215
 H         4.784901        -1.253995         1.760128
 H         3.917641        -2.763181         1.375622
 H         5.110658        -1.992774         0.215860
 H        -0.288722        -1.008284         0.921822
 H         0.061571         0.701353         1.436521
 H        -0.544433         0.267370        -0.315194
 H         1.823139        -0.167357        -2.128762
 H         1.682239         1.434240        -1.357060
 H         4.391895         0.870237        -0.670996
 H         3.027166         2.242671         1.346740
