19
Iteration:  4778charge 0 multiplicity 1
 C         4.568981        -1.593956         0.808339
 C         3.258256        -0.825338         0.508671
 O         1.951714        -1.504030         0.162647
 C         1.427001        -0.110433         0.027799
 C        -0.033396         0.095801         0.174697
 C         2.133213         0.485969        -1.189360
 C         3.390081         0.575823        -0.459539
 C         2.721918         0.425854         0.952184
 O         2.763457         1.131962         2.097682
 H         4.392308        -2.668457         0.587121
 H         5.549748        -1.117720         0.492767
 H         4.428949        -1.746928         1.930474
 H        -0.468101         0.321250        -0.831016
 H        -0.614151        -0.706885         0.798383
 H        -0.219937         0.915807         0.872744
 H         1.994515        -0.206928        -2.016176
 H         1.750954         1.494406        -1.346889
 H         4.270370         1.026174        -0.881437
 H         2.644944         0.436989         2.787406
