19
Iteration:  3850charge 0 multiplicity 1
 C         4.351949        -1.701531         0.897685
 C         3.234022        -0.836032         0.531987
 O         1.975703        -1.398719         0.033627
 C         1.456627        -0.059049         0.046725
 C        -0.058422        -0.157966         0.117060
 C         2.071066         0.661087        -1.119670
 C         3.417349         0.490254        -0.370007
 C         2.641542         0.397184         0.984175
 O         3.005837         1.179263         2.076315
 H         4.185184        -2.107112         1.931692
 H         4.329265        -2.636802         0.240823
 H         5.348116        -1.244394         0.947495
 H        -0.646627         0.584724        -0.534042
 H        -0.416867        -1.178993        -0.092685
 H        -0.445494        -0.027344         1.174908
 H         1.899737         0.153011        -2.121193
 H         1.889360         1.729061        -1.192173
 H         4.365939         1.042174        -0.642543
 H         3.186343         2.106413         1.908548
