19
Iteration:  4116charge 0 multiplicity 1
 C         4.314272        -1.740919         0.989523
 C         3.289641        -0.819271         0.420816
 O         1.936765        -1.391611         0.115510
 C         1.423085        -0.139467        -0.022183
 C        -0.058991        -0.078100         0.524462
 C         2.099756         0.442147        -1.326963
 C         3.507351         0.418118        -0.501212
 C         2.766902         0.537738         0.866504
 O         2.861708         1.332093         2.045526
 H         5.150526        -2.099290         0.278002
 H         4.879883        -1.281408         1.841989
 H         3.813022        -2.708861         1.328320
 H        -0.107814        -0.668818         1.452453
 H        -0.335048         0.984324         0.600675
 H        -0.724694        -0.560254        -0.147294
 H         2.094864        -0.284866        -2.148653
 H         1.827491         1.489379        -1.669333
 H         4.483279         0.857553        -0.792897
 H         2.803851         2.224058         1.699129
