19
Iteration:  2069
 C         4.662537        -1.619907         0.843601
 C         3.147465        -0.962780         0.552120
 O         1.822877        -1.465079         0.432565
 C         1.394685        -0.103401         0.038026
 C         0.046537         0.250417         0.541384
 C         2.135815         0.325998        -1.343777
 C         3.320735         0.156122        -0.513963
 C         2.683370         0.479774         0.759544
 O         2.876433         1.392880         1.841830
 H         5.363232        -1.356507         0.004188
 H         5.032780        -1.341050         1.916841
 H         4.281736        -2.659586         0.716105
 H        -0.263213        -0.602905         1.206658
 H         0.174817         1.217687         1.073468
 H        -0.691704         0.327867        -0.294678
 H         1.993101        -0.334013        -2.246728
 H         1.987491         1.437704        -1.574950
 H         4.339857         0.300716        -0.850321
 H         2.655881         2.283566         1.574351
