19
Iteration:  1807charge 0 multiplicity 1
 C         4.330348        -1.675871         1.068988
 C         3.241194        -0.858260         0.494263
 O         2.045807        -1.483300         0.204253
 C         1.449563        -0.173177         0.077422
 C        -0.044281        -0.032709         0.414582
 C         1.937206         0.488793        -1.253036
 C         3.417834         0.438885        -0.596978
 C         2.752910         0.517184         0.800835
 O         2.912551         1.365402         1.910073
 H         5.283216        -1.205742         0.906263
 H         4.168494        -1.964919         2.170150
 H         4.523667        -2.561087         0.460898
 H        -0.335097        -1.102073         0.300585
 H        -0.169464         0.075713         1.529054
 H        -0.636669         0.566799        -0.316570
 H         1.798705        -0.114327        -2.169877
 H         1.631538         1.563903        -1.317077
 H         4.311542         0.883493        -0.952458
 H         3.836800         1.728650         1.915930
