19
Iteration:  4327
 C         4.274566        -1.706200         1.210327
 C         3.303279        -0.855173         0.448643
 O         2.037952        -1.502196         0.010693
 C         1.443501        -0.133430         0.035703
 C         0.033293        -0.146427         0.605715
 C         2.089198         0.615114        -1.277538
 C         3.454821         0.583850        -0.611522
 C         2.719303         0.412959         0.837632
 O         2.760907         1.357183         1.839716
 H         3.910277        -2.792772         0.994005
 H         5.385099        -1.627348         0.915135
 H         4.024217        -1.704619         2.280234
 H        -0.701899        -0.113777        -0.154716
 H        -0.085872        -0.979226         1.207056
 H        -0.225148         0.779235         1.202914
 H         2.011021        -0.042257        -2.223400
 H         1.579964         1.623351        -1.476387
 H         4.535529         0.824172        -0.888313
 H         3.732682         1.549428         1.965385
