19
Iteration:  1253
 C         4.563651        -1.701667         0.873321
 C         3.315839        -0.828092         0.463371
 O         2.050051        -1.440146         0.116395
 C         1.487937        -0.117849         0.062759
 C        -0.001914        -0.006534         0.132770
 C         2.050633         0.658072        -1.149228
 C         3.387656         0.581670        -0.386951
 C         2.706342         0.382247         0.956853
 O         2.673652         1.016243         2.136772
 H         4.496701        -2.131110         1.847180
 H         4.395764        -2.626172         0.203050
 H         5.374729        -0.979835         0.653911
 H        -0.566225        -0.481349         0.947521
 H        -0.420571         0.988069        -0.044119
 H        -0.351342        -0.323424        -0.871875
 H         1.915899         0.358391        -2.167318
 H         1.580493         1.698823        -1.117190
 H         4.279564         1.188217        -0.421348
 H         2.363760         1.902189         1.926936
