19
Iteration:  4825charge 0 multiplicity 1
 C         4.315470        -1.876288         0.996194
 C         3.338734        -0.884142         0.402658
 O         2.033316        -1.433661        -0.046716
 C         1.424630        -0.027465        -0.014517
 C         0.002314        -0.201896         0.396435
 C         2.141176         0.688809        -1.117800
 C         3.430011         0.541293        -0.303261
 C         2.690607         0.460474         0.912172
 O         2.788671         1.409547         1.873291
 H         4.376054        -2.643611         0.174897
 H         5.246940        -1.392402         0.976893
 H         4.047886        -2.525603         1.851159
 H        -0.772477        -0.228910        -0.392337
 H         0.111502        -1.212669         0.916367
 H        -0.325675         0.367999         1.271589
 H         2.140910         0.247801        -2.122274
 H         1.874352         1.790617        -1.020210
 H         4.439098         1.018196        -0.418517
 H         2.362483         1.008722         2.689556
