19
Iteration:  2548
 C         4.435103        -1.509481         0.909657
 C         3.181253        -0.867506         0.569907
 O         1.859859        -1.451943         0.572381
 C         1.377362        -0.057765         0.062689
 C        -0.060696         0.157710         0.429820
 C         1.937571         0.106407        -1.318565
 C         3.338820         0.154545        -0.584391
 C         2.720437         0.589953         0.734371
 O         3.253364         1.472341         1.681566
 H         4.466744        -2.317776         1.604395
 H         4.939897        -2.026469         0.042967
 H         5.082846        -0.778189         1.305383
 H        -0.052899        -0.623143         1.343674
 H        -0.449920         1.153981         0.750759
 H        -0.929591        -0.175130        -0.265069
 H         1.630652        -0.643618        -2.061779
 H         1.732692         1.161787        -1.635743
 H         4.318945         0.392153        -0.904821
 H         3.061255         1.092384         2.544910
