19
Iteration:   986
 C         4.206507        -1.609335         1.070391
 C         3.287701        -0.675362         0.389829
 O         2.125621        -1.351134        -0.074865
 C         1.435263        -0.046131         0.036695
 C         0.018369        -0.233104         0.287365
 C         2.137530         0.618678        -1.303937
 C         3.458817         0.598728        -0.452433
 C         2.652698         0.566003         0.867087
 O         2.816436         0.849481         2.249960
 H         3.802179        -1.676852         2.129349
 H         4.248454        -2.562994         0.625995
 H         5.178153        -1.120897         1.095886
 H        -0.139063        -1.256311         0.576791
 H        -0.129254         0.301761         1.230865
 H        -0.698689        -0.109539        -0.509025
 H         2.133859        -0.073600        -2.178392
 H         1.856784         1.575360        -1.559742
 H         4.460403         0.965034        -0.896800
 H         2.622745         1.787558         2.370974
