19
Iteration:  1432
 C         4.463562        -1.580395         0.998456
 C         3.322175        -0.800713         0.354541
 O         2.050428        -1.456786         0.210381
 C         1.449620        -0.072122         0.129214
 C        -0.103899        -0.061464         0.115785
 C         2.009335         0.514720        -1.177817
 C         3.409802         0.601247        -0.496465
 C         2.745815         0.449811         0.872532
 O         2.784947         1.022268         2.141751
 H         5.433315        -1.302974         0.507272
 H         4.409470        -1.596612         2.039407
 H         4.210141        -2.581004         0.660967
 H        -0.594397        -0.510709         0.946032
 H        -0.443568         0.951868         0.172658
 H        -0.366915        -0.453754        -0.818155
 H         2.095781        -0.165075        -2.074517
 H         1.545158         1.466647        -1.314602
 H         4.358914         1.068246        -0.921337
 H         3.195148         1.893807         2.054750
