19
Iteration:  4777
 C         4.571297        -1.591423         0.813002
 C         3.259439        -0.826850         0.514948
 O         1.947229        -1.494707         0.171616
 C         1.428080        -0.114685         0.032623
 C        -0.034146         0.095380         0.174733
 C         2.135348         0.492183        -1.188457
 C         3.392314         0.579913        -0.470577
 C         2.720306         0.421662         0.943941
 O         2.759023         1.118220         2.097288
 H         4.416132        -2.656552         0.594897
 H         5.569911        -1.102074         0.460309
 H         4.445710        -1.765646         1.913025
 H        -0.456690         0.321693        -0.833592
 H        -0.608618        -0.679381         0.764502
 H        -0.219900         0.962248         0.849705
 H         2.001522        -0.211740        -2.008681
 H         1.707950         1.463167        -1.374925
 H         4.261051         1.015941        -0.861048
 H         2.675626         0.440883         2.783799
