19
Iteration:   204
 C         4.342236        -1.731298         0.823912
 C         3.218472        -0.921584         0.455643
 O         2.055533        -1.369723        -0.308816
 C         1.414105        -0.005979        -0.133624
 C         0.002768        -0.017101         0.259566
 C         2.301690         0.948171        -1.061022
 C         3.522654         0.536068        -0.197605
 C         2.659080         0.248532         1.034870
 O         2.670950         0.995134         2.225405
 H         4.004947        -2.467901         1.551305
 H         4.816772        -2.233369        -0.035361
 H         5.270262        -1.130280         1.180983
 H        -0.634630         0.891226         0.191678
 H        -0.539858        -0.845794        -0.355497
 H        -0.213579        -0.527676         1.279154
 H         2.315541         0.707043        -2.183527
 H         2.094748         1.914684        -0.891843
 H         4.448988         0.919433         0.044553
 H         2.046990         0.523574         2.790981
