19
Iteration:  3334
 C         4.393792        -1.471466         1.221141
 C         3.247108        -0.971555         0.390215
 O         1.941681        -1.535761         0.278088
 C         1.395950        -0.161465         0.025640
 C        -0.014208         0.214687         0.492622
 C         2.036492         0.419308        -1.312964
 C         3.357209         0.206732        -0.594170
 C         2.684785         0.455352         0.782724
 O         3.032595         1.317143         1.817047
 H         5.331002        -1.506832         0.666675
 H         4.291131        -1.081677         2.238342
 H         4.130975        -2.519164         1.396127
 H        -0.019465         0.355350         1.523363
 H        -0.378471         1.054856        -0.112140
 H        -0.589575        -0.668896         0.378685
 H         1.801790        -0.207369        -2.194957
 H         1.987991         1.478743        -1.539539
 H         4.302978         0.537088        -0.955270
 H         3.106851         2.184986         1.440564
