19
Iteration:  1264charge 0 multiplicity 1
 C         4.550353        -1.624357         0.807605
 C         3.336819        -0.865113         0.472393
 O         2.034755        -1.499756         0.021225
 C         1.446316        -0.189637         0.108202
 C        -0.011254         0.062742         0.134202
 C         2.101031         0.675739        -1.126783
 C         3.437837         0.477611        -0.337178
 C         2.612335         0.363262         0.964789
 O         2.626388         1.120186         2.140784
 H         4.475456        -1.944646         1.823399
 H         4.823487        -2.413709         0.002818
 H         5.479090        -1.001012         0.797932
 H        -0.412198        -0.628390         0.906855
 H        -0.146229         1.068570         0.524076
 H        -0.498671        -0.324980        -0.769254
 H         1.960263         0.207129        -2.077319
 H         1.768186         1.757801        -1.057311
 H         4.408884         0.909185        -0.513085
 H         2.640956         2.065650         1.927465
