19
Iteration:  1115charge 0 multiplicity 1
 C         4.461955        -1.690895         0.695581
 C         3.251969        -0.775508         0.495173
 O         2.008929        -1.440844         0.047717
 C         1.439291        -0.033687        -0.032325
 C         0.003480        -0.028631         0.331533
 C         2.387069         0.501696        -1.342190
 C         3.438107         0.609184        -0.222765
 C         2.596027         0.455509         0.962055
 O         2.607380         1.051837         2.232338
 H         4.056988        -2.684544         0.890935
 H         4.955490        -1.696813        -0.266105
 H         5.130332        -1.271984         1.450542
 H        -0.128461         0.175637         1.423170
 H        -0.611171         0.664847        -0.309825
 H        -0.465712        -1.026689         0.145133
 H         2.301450        -0.232172        -2.165872
 H         1.929201         1.454748        -1.642138
 H         4.525304         0.854995        -0.245772
 H         2.272692         1.969854         2.034329
