19
Iteration:   786
 C         4.532926        -1.497288         0.919228
 C         3.318155        -0.861709         0.385171
 O         2.084428        -1.443043        -0.170396
 C         1.429774        -0.097347         0.006567
 C        -0.036434         0.047602         0.249779
 C         2.121730         0.734130        -1.140478
 C         3.456863         0.437599        -0.304864
 C         2.625691         0.301351         0.955260
 O         2.566445         0.930149         2.240336
 H         4.460677        -1.948189         1.964093
 H         5.134559        -2.385271         0.401568
 H         5.275566        -0.598697         1.011915
 H        -0.195649         0.980758         0.934812
 H        -0.618216         0.239954        -0.745127
 H        -0.538682        -0.878143         0.698659
 H         2.125070         0.117826        -2.196771
 H         1.657956         1.757810        -1.355920
 H         4.407738         0.930801        -0.411899
 H         3.247925         1.639729         2.160493
