19
Iteration:  2794charge 0 multiplicity 1
 C         4.323562        -1.596405         1.210403
 C         3.343903        -0.832341         0.402915
 O         2.041391        -1.520132         0.275980
 C         1.473094        -0.058891         0.154301
 C         0.091200         0.135592         0.644586
 C         1.819118         0.294148        -1.296776
 C         3.331906         0.106530        -0.768849
 C         2.716434         0.481216         0.748588
 O         2.933896         1.522091         1.631549
 H         5.337494        -1.562737         0.902366
 H         4.303118        -1.175041         2.144213
 H         4.045462        -2.571589         1.493042
 H         0.215695        -0.471215         1.542391
 H        -0.043059         1.241760         0.925177
 H        -0.556509        -0.407304        -0.097133
 H         1.494486        -0.388186        -2.061885
 H         1.572456         1.332772        -1.499254
 H         4.153435         0.777430        -1.066670
 H         3.449348         1.277275         2.465589
