19
Iteration:  2828
 C         4.321134        -1.690821         1.056319
 C         3.192438        -0.862088         0.530808
 O         1.955918        -1.496875         0.374630
 C         1.347796        -0.134109         0.092553
 C         0.025791         0.062772         0.758949
 C         2.111807         0.286404        -1.352996
 C         3.446039         0.318627        -0.691994
 C         2.786672         0.506511         0.677775
 O         2.860328         1.543066         1.614112
 H         5.206186        -1.323671         0.607925
 H         4.392148        -1.387551         2.028771
 H         4.262582        -2.744019         0.902757
 H         0.361859        -0.059116         1.791466
 H        -0.581104         0.995546         0.678817
 H        -0.755043        -0.725741         0.713467
 H         1.984700        -0.433902        -2.137093
 H         1.724409         1.248133        -1.726832
 H         4.580995         0.363932        -0.870342
 H         3.741305         1.924476         1.752831
