19
Iteration:  4528
 C         4.293020        -1.658200         1.171977
 C         3.288229        -0.843467         0.327543
 O         2.059215        -1.472079        -0.008299
 C         1.490449        -0.071589         0.046560
 C         0.033365        -0.056100         0.537309
 C         2.068833         0.567547        -1.260657
 C         3.469974         0.521202        -0.555815
 C         2.689199         0.431903         0.818995
 O         2.760006         1.222473         1.947751
 H         4.306379        -2.687537         0.826460
 H         5.315496        -1.251459         1.010146
 H         4.197935        -1.425641         2.247117
 H        -0.770028        -0.364432        -0.118773
 H        -0.206831        -0.544437         1.501086
 H        -0.033909         0.965144         0.670565
 H         1.894410        -0.107418        -2.160150
 H         1.783149         1.615722        -1.513365
 H         4.517128         0.853889        -0.873311
 H         2.658905         0.685461         2.761625
