19
Iteration:   535
 C         4.333977        -1.795882         0.823394
 C         3.244470        -0.844453         0.394130
 O         2.011806        -1.341765        -0.184147
 C         1.497223        -0.043837        -0.052352
 C         0.005334        -0.150627         0.160939
 C         2.216134         0.885733        -1.043460
 C         3.478223         0.650101        -0.179414
 C         2.643106         0.336678         0.980014
 O         2.684975         1.016014         2.206256
 H         4.028424        -2.657417         1.383833
 H         4.730131        -2.353548         0.006394
 H         5.082777        -1.264029         1.315966
 H        -0.094126        -0.662225         1.115362
 H        -0.454289         0.859616         0.276838
 H        -0.485849        -0.716543        -0.588849
 H         2.317900         0.396139        -2.036036
 H         1.770112         1.833581        -1.031201
 H         4.379902         1.211927        -0.176003
 H         3.313568         0.555773         2.804747
