19
Iteration:   153charge 0 multiplicity 1
 C         4.246058        -1.826042         0.797377
 C         3.296344        -0.765652         0.365570
 O         2.103485        -1.259567        -0.129752
 C         1.403216         0.079780         0.052381
 C        -0.121671        -0.100275        -0.079021
 C         2.177661         0.733198        -1.108864
 C         3.516096         0.636520        -0.300895
 C         2.718285         0.462763         1.076941
 O         2.815175         0.832930         2.473378
 H         3.711246        -2.620916         1.323577
 H         4.780340        -2.263140        -0.059201
 H         5.021342        -1.396642         1.406772
 H        -0.492449         0.685883        -0.650691
 H        -0.418551        -1.016046        -0.557006
 H        -0.731680        -0.032372         0.777033
 H         1.949534         0.176544        -1.955038
 H         1.758003         1.905524        -1.261907
 H         4.411576         1.167368        -0.544124
 H         3.251655         0.022834         2.821746
