19
Iteration:  4221
 C         4.446590        -1.614981         0.818453
 C         3.261434        -0.798461         0.521769
 O         1.979195        -1.513039         0.314759
 C         1.397434        -0.085451         0.052781
 C        -0.150374         0.117532         0.232031
 C         2.149051         0.373180        -1.291845
 C         3.428750         0.430392        -0.549516
 C         2.770384         0.488205         0.914361
 O         2.851745         1.173480         2.102703
 H         4.707263        -2.274549         0.076642
 H         5.330999        -0.910548         1.016414
 H         4.397019        -2.039877         1.795556
 H        -0.598541        -0.915650         0.538930
 H        -0.326772         0.634471         1.219831
 H        -0.717817         0.654076        -0.623078
 H         1.965576        -0.424385        -2.035061
 H         1.759305         1.301236        -1.691949
 H         4.490985         0.789055        -0.757010
 H         2.823673         2.125480         1.845477
