19
Iteration:  2669charge 0 multiplicity 1
 C         4.303258        -1.865138         1.000242
 C         3.319762        -0.872015         0.484293
 O         1.980485        -1.455912         0.320713
 C         1.394767        -0.113824         0.128704
 C        -0.012348        -0.011110         0.635427
 C         2.012732         0.241954        -1.188045
 C         3.350879         0.222270        -0.589013
 C         2.775353         0.670131         0.705217
 O         3.011331         1.718687         1.578442
 H         4.943062        -1.320575         1.741217
 H         3.886748        -2.722697         1.572617
 H         5.081986        -2.131620         0.284892
 H         0.209822         0.075504         1.774320
 H        -0.465303         0.927758         0.264397
 H        -0.603377        -0.963790         0.422194
 H         1.697015        -0.528074        -1.949545
 H         1.679246         1.259412        -1.501384
 H         4.210496         0.655341        -1.156534
 H         2.531431         1.731212         2.455562
