19
Iteration:   121charge 0 multiplicity 1
 C         4.316425        -1.679506         0.748739
 C         3.142943        -0.871459         0.427705
 O         1.971950        -1.377192        -0.047347
 C         1.448362         0.028991        -0.106308
 C        -0.074262        -0.058389         0.010598
 C         2.319691         0.827943        -1.136896
 C         3.490096         0.646907        -0.145331
 C         2.634634         0.353282         1.012242
 O         2.888158         0.851585         2.327364
 H         4.202999        -2.530389         1.439851
 H         4.714285        -2.101744        -0.178072
 H         4.977047        -1.029802         1.248379
 H        -0.487583         0.841603        -0.350530
 H        -0.472295        -0.845558        -0.595195
 H        -0.317362        -0.158769         1.031994
 H         2.258313         0.549289        -2.108844
 H         1.879648         1.928206        -1.110637
 H         4.449388         1.096560        -0.016866
 H         2.466702         0.123201         2.864280
