19
Iteration:  2660
 C         4.373624        -1.812156         1.027899
 C         3.221891        -0.876774         0.483424
 O         1.995196        -1.401629         0.286870
 C         1.420815        -0.116912         0.064723
 C         0.010279        -0.005433         0.730505
 C         1.988989         0.227585        -1.288308
 C         3.380602         0.186999        -0.616828
 C         2.731828         0.608019         0.784914
 O         3.018863         1.750774         1.598799
 H         4.767876        -1.426434         1.953475
 H         3.765806        -2.618667         1.330654
 H         5.019644        -2.269679         0.285049
 H         0.222856         0.057561         1.896378
 H        -0.629223         0.860140         0.368047
 H        -0.628581        -0.959294         0.639306
 H         1.880366        -0.447088        -2.160608
 H         1.832111         1.263678        -1.569738
 H         4.393013         0.338213        -1.094091
 H         2.389299         1.539219         2.360068
