19
Iteration:   275charge 0 multiplicity 1
 C         4.407043        -1.817052         0.682236
 C         3.380627        -0.790324         0.444014
 O         2.117256        -1.393904        -0.074579
 C         1.507062        -0.122221        -0.017804
 C         0.051075         0.161982         0.163400
 C         2.215534         0.745188        -1.112574
 C         3.499212         0.639563        -0.256075
 C         2.617950         0.390726         1.016847
 O         2.474273         0.792413         2.287263
 H         3.862984        -2.568340         1.283004
 H         4.773694        -2.270841        -0.232149
 H         5.290764        -1.581758         1.184482
 H        -0.111956         0.927872         0.893566
 H        -0.459114         0.470780        -0.684271
 H        -0.593514        -0.580632         0.460166
 H         2.212025         0.359635        -2.070845
 H         1.545157         1.682987        -1.032065
 H         4.376007         1.389273        -0.193872
 H         2.264594         1.723702         2.382765
