19
Iteration:  2982
 C         4.268795        -1.676082         1.387367
 C         3.295985        -0.913318         0.479564
 O         2.046069        -1.498493         0.283572
 C         1.438922        -0.181907         0.086954
 C         0.102876         0.187509         0.722034
 C         1.906967         0.273720        -1.315736
 C         3.286627         0.317426        -0.824317
 C         2.860924         0.470466         0.622059
 O         2.985818         1.478678         1.617587
 H         4.562455        -0.932846         2.077031
 H         3.655869        -2.394029         1.832365
 H         5.079977        -2.192349         0.975718
 H        -0.074270        -0.396205         1.709451
 H         0.167253         1.205367         1.146668
 H        -0.787802         0.055305         0.080713
 H         1.476256        -0.327097        -2.082142
 H         1.516431         1.288831        -1.454585
 H         4.209246         0.453814        -1.328513
 H         2.530727         2.258034         1.144422
