19
Iteration:   422charge 0 multiplicity 1
 C         4.446999        -1.651643         0.695622
 C         3.224580        -0.880805         0.422326
 O         2.006648        -1.365723        -0.235728
 C         1.469627         0.051712        -0.009750
 C         0.025221         0.041250         0.293120
 C         2.335630         0.850233        -1.156691
 C         3.526545         0.488479        -0.190156
 C         2.607001         0.247100         1.033499
 O         2.507651         0.814075         2.306081
 H         4.338933        -2.351487         1.517483
 H         4.776781        -2.361692        -0.069263
 H         5.197400        -0.897884         0.942002
 H        -0.551673         0.912467        -0.055957
 H        -0.571617        -0.664297        -0.254042
 H        -0.187824        -0.029706         1.389498
 H         2.262023         0.292075        -2.115749
 H         2.200742         1.897780        -1.207680
 H         4.510774         0.984767        -0.167810
 H         2.922216         1.712731         2.270568
