19
Iteration:  3222charge 0 multiplicity 1
 C         4.556260        -1.566660         0.947935
 C         3.169954        -0.941474         0.585932
 O         1.820389        -1.425586         0.431349
 C         1.377100        -0.106335         0.142461
 C        -0.039681         0.306788         0.427811
 C         2.081765         0.121350        -1.259974
 C         3.434685         0.075273        -0.517672
 C         2.751760         0.478722         0.784102
 O         2.907608         1.490817         1.681066
 H         5.234032        -1.043729         1.680853
 H         4.244075        -2.611170         1.252079
 H         5.197806        -1.752596         0.040000
 H        -0.583493        -0.479566         0.987269
 H        -0.055294         1.229440         0.970932
 H        -0.600948         0.483094        -0.431448
 H         1.903446        -0.631345        -2.043081
 H         1.870247         1.188308        -1.506264
 H         4.444200         0.335727        -1.013577
 H         3.471182         2.263260         1.375008
