19
Iteration:  2463charge 0 multiplicity 1
 C         4.288621        -1.845097         1.035344
 C         3.289944        -0.915824         0.494880
 O         1.900037        -1.419136         0.302944
 C         1.405538        -0.030855         0.057254
 C         0.084171         0.005487         0.797148
 C         2.050014         0.284838        -1.302253
 C         3.425328         0.198121        -0.617557
 C         2.777363         0.514174         0.777552
 O         2.938185         1.729415         1.537820
 H         3.745709        -2.510314         1.774016
 H         4.660303        -2.460063         0.195208
 H         5.076672        -1.296819         1.598229
 H         0.294392         0.127186         1.889448
 H        -0.450050         0.965052         0.602167
 H        -0.563934        -0.877943         0.477635
 H         1.800747        -0.479830        -2.045125
 H         2.033134         1.314778        -1.700153
 H         4.235102         0.564775        -1.223474
 H         2.673017         1.613533         2.485628
