19
Iteration:  1399
 C         4.491033        -1.421661         0.970365
 C         3.150415        -0.856580         0.487529
 O         1.958405        -1.439204        -0.016065
 C         1.360332        -0.072579        -0.092200
 C        -0.093817        -0.132511         0.205912
 C         2.156320         0.511387        -1.200053
 C         3.462714         0.387171        -0.331853
 C         2.581009         0.483916         0.956133
 O         2.962098         1.082653         2.168134
 H         5.203472        -1.519430         0.077387
 H         4.966250        -0.809837         1.674797
 H         4.293071        -2.452913         1.270754
 H        -0.272496        -1.035416         0.714428
 H        -0.198000         0.695156         0.857982
 H        -0.850424        -0.029534        -0.485231
 H         2.177694         0.079550        -2.252649
 H         1.836969         1.529813        -1.340673
 H         4.529750         0.822639        -0.445054
 H         3.050520         2.063327         1.978099
