19
Iteration:  2986charge 0 multiplicity 1
 C         4.268069        -1.675537         1.371585
 C         3.292656        -0.911953         0.461231
 O         2.028841        -1.490370         0.273263
 C         1.433786        -0.206954         0.090174
 C         0.070645         0.206976         0.734304
 C         1.930088         0.272419        -1.280492
 C         3.306078         0.299434        -0.789132
 C         2.883263         0.487285         0.629431
 O         2.969235         1.474140         1.581242
 H         4.704929        -0.948105         2.094908
 H         3.673207        -2.471952         1.966378
 H         5.165231        -2.200849         0.945834
 H         0.024277        -0.453568         1.632388
 H         0.214783         1.276501         1.029703
 H        -0.873387         0.137813         0.174571
 H         1.536638        -0.472485        -2.053694
 H         1.657249         1.329835        -1.436225
 H         4.120915         0.693167        -1.450981
 H         2.369101         2.144758         1.233666
