19
Iteration:   293
 C         4.428250        -1.735102         0.733251
 C         3.280313        -0.861579         0.357140
 O         2.076291        -1.395232        -0.178109
 C         1.484757         0.016187         0.010006
 C        -0.000109         0.101168         0.128324
 C         2.239287         0.766553        -1.098621
 C         3.438930         0.612515        -0.201392
 C         2.635695         0.294839         1.056325
 O         2.545798         0.846104         2.382657
 H         4.194493        -2.521926         1.499681
 H         4.932995        -2.169820        -0.178921
 H         5.198850        -1.142452         1.271842
 H        -0.364578         0.856957         0.877069
 H        -0.506459         0.276512        -0.923985
 H        -0.481245        -0.917570         0.404926
 H         2.173001         0.168083        -2.095599
 H         2.111337         1.766242        -1.325143
 H         4.502409         0.864281        -0.421061
 H         2.956926         1.699453         2.236714
