19
Iteration:  4025charge 0 multiplicity 1
 C         4.309322        -1.713536         0.971659
 C         3.248350        -0.782261         0.495766
 O         2.026703        -1.339590         0.105255
 C         1.387440        -0.125467         0.009463
 C        -0.014874        -0.045171         0.339640
 C         2.111339         0.471934        -1.184017
 C         3.424917         0.436387        -0.467134
 C         2.697487         0.522827         0.880903
 O         2.926978         1.147170         2.013736
 H         4.126534        -2.766060         0.828772
 H         5.176527        -1.313933         0.292679
 H         4.652063        -1.485096         1.991542
 H        -0.293632         0.434548         1.259532
 H        -0.606169         0.389033        -0.421937
 H        -0.377016        -1.025526         0.442383
 H         1.947071        -0.329066        -1.981010
 H         1.760819         1.459953        -1.505450
 H         4.309962         0.854413        -0.832095
 H         2.847003         2.121693         1.899366
