19
Iteration:  2390
 C         4.463389        -1.579093         0.989370
 C         3.266366        -0.901100         0.420001
 O         1.884592        -1.530711         0.505047
 C         1.435472        -0.004419         0.281797
 C        -0.018487         0.279511         0.309933
 C         1.913996         0.170958        -1.211241
 C         3.268423         0.288371        -0.695940
 C         2.799903         0.478853         0.748048
 O         3.058878         1.385456         1.751833
 H         4.561378        -1.558552         2.095701
 H         4.381824        -2.605239         0.706106
 H         5.351100        -1.059873         0.506328
 H        -0.334403        -0.048808         1.261430
 H        -0.182431         1.360946         0.294596
 H        -0.491119        -0.259665        -0.500275
 H         1.580592        -0.716022        -1.804883
 H         1.573221         1.108222        -1.673859
 H         4.150244         0.681199        -1.179696
 H         3.530937         1.065995         2.514168
