19
Iteration:  1690charge 0 multiplicity 1
 C         4.361971        -1.669965         0.943007
 C         3.274348        -0.865785         0.492406
 O         2.031392        -1.378095         0.135117
 C         1.486741         0.009662         0.043294
 C         0.144987        -0.086569         0.550569
 C         2.043750         0.443034        -1.351958
 C         3.446007         0.220192        -0.515287
 C         2.682093         0.480797         0.847843
 O         2.726442         1.413965         1.966416
 H         4.309487        -2.753174         0.709683
 H         5.269698        -1.165173         0.553679
 H         4.462233        -1.626516         2.053654
 H        -0.615217        -0.322904        -0.220766
 H         0.074501        -1.016101         1.173049
 H        -0.274411         0.805497         1.026096
 H         1.709393        -0.269086        -2.142310
 H         2.307302         1.482917        -1.585022
 H         4.334217         0.691609        -0.845253
 H         1.786853         1.669720         1.961889
