19
Iteration:   694charge 0 multiplicity 1
 C         4.410625        -1.788263         0.792591
 C         3.270053        -0.867627         0.424899
 O         2.084152        -1.400796        -0.146919
 C         1.494026        -0.069254        -0.035934
 C        -0.030787        -0.180697         0.247695
 C         2.227571         0.877892        -1.051667
 C         3.429686         0.518964        -0.228643
 C         2.641909         0.323308         1.048922
 O         2.685750         1.193706         2.090083
 H         4.090120        -2.634986         1.357596
 H         4.815293        -2.184621        -0.132939
 H         5.104687        -1.174860         1.325794
 H        -0.697472         0.266831        -0.490804
 H        -0.195071        -1.272098         0.143503
 H        -0.378521         0.030134         1.294445
 H         2.243506         0.715006        -2.101530
 H         1.942321         1.952320        -0.849535
 H         4.335901         1.069203        -0.203344
 H         1.873795         1.214719         2.615290
