19
Iteration:  4874
 C         4.365168        -1.881233         0.854697
 C         3.339007        -0.857081         0.482862
 O         2.045262        -1.429355        -0.030873
 C         1.453802        -0.057943         0.059325
 C         0.025896        -0.102533         0.424337
 C         2.082476         0.605689        -1.229887
 C         3.475332         0.548894        -0.398426
 C         2.656967         0.462398         0.927502
 O         2.753557         1.346835         1.984066
 H         5.169338        -2.222643         0.172632
 H         4.657818        -1.422440         1.868500
 H         3.796380        -2.762080         1.209143
 H        -0.448115        -0.749210        -0.323256
 H        -0.308672        -0.337199         1.437399
 H        -0.358880         0.934117         0.368590
 H         2.007333        -0.053601        -2.136870
 H         1.777205         1.658079        -1.259341
 H         4.418553         1.139554        -0.434286
 H         2.494051         0.965259         2.819675
