19
Iteration:  4526
 C         4.291469        -1.669395         1.168295
 C         3.281422        -0.832484         0.317191
 O         2.058534        -1.462955        -0.021661
 C         1.489433        -0.061767         0.039079
 C         0.025370        -0.078924         0.554214
 C         2.077031         0.560165        -1.248745
 C         3.479812         0.524852        -0.553538
 C         2.695156         0.421294         0.818602
 O         2.755333         1.234929         1.944746
 H         4.244084        -2.697329         0.891577
 H         5.372123        -1.260681         1.094753
 H         4.182907        -1.477482         2.214832
 H        -0.782213        -0.394024        -0.133552
 H        -0.195532        -0.486201         1.517803
 H        -0.100748         1.016500         0.684095
 H         1.927507        -0.156181        -2.148722
 H         1.777960         1.577004        -1.474673
 H         4.525682         0.885794        -0.890774
 H         2.716897         0.717698         2.746397
