19
Iteration:  4737charge 0 multiplicity 1
 C         4.481621        -1.489322         0.884361
 C         3.276018        -0.754091         0.417910
 O         2.019111        -1.460675         0.131981
 C         1.423409        -0.095744         0.014724
 C        -0.050839         0.141771         0.257620
 C         2.138001         0.481079        -1.232952
 C         3.478287         0.387705        -0.579176
 C         2.627221         0.444114         0.925677
 O         2.714847         1.023932         2.228777
 H         4.393378        -2.297686         0.103718
 H         5.382367        -0.943581         0.904410
 H         4.436400        -1.824447         1.957811
 H        -0.612468        -0.367551        -0.538254
 H        -0.442473        -0.062197         1.375759
 H        -0.180957         1.214417         0.266778
 H         2.191121        -0.347492        -1.990436
 H         1.664705         1.481669        -1.582080
 H         4.480010         0.794562        -0.894896
 H         3.219583         0.390316         2.800638
