19
Iteration:  4661charge 0 multiplicity 1
 C         4.271881        -1.880412         0.966930
 C         3.317141        -0.838485         0.437128
 O         2.061397        -1.408607        -0.079902
 C         1.496582        -0.028082         0.062001
 C         0.022518        -0.228845         0.420118
 C         2.073450         0.671289        -1.191383
 C         3.487991         0.452422        -0.437701
 C         2.669843         0.414583         0.968588
 O         2.808768         1.458067         1.962839
 H         5.022490        -2.195092         0.155495
 H         4.739803        -1.415383         1.779262
 H         3.757178        -2.921313         1.116212
 H        -0.223109        -1.216484         0.011185
 H        -0.020495        -0.191658         1.591624
 H        -0.680765         0.485352         0.120412
 H         1.607392         0.064587        -2.037100
 H         2.010876         1.839470        -1.115589
 H         4.417307         0.881528        -0.697621
 H         2.147758         1.579409         2.659101
