19
Iteration:  2154
 C         4.292513        -1.659211         1.086825
 C         3.219879        -0.852078         0.488616
 O         1.786882        -1.377645         0.305445
 C         1.366770        -0.090685         0.108301
 C        -0.038061        -0.108826         0.626557
 C         2.073262         0.403294        -1.331687
 C         3.420466         0.259760        -0.623934
 C         2.743700         0.531183         0.702862
 O         3.238865         1.430724         1.709259
 H         4.614069        -1.351226         2.082549
 H         3.747903        -2.507515         1.619535
 H         5.195568        -2.111723         0.647853
 H        -0.167751        -0.943619         1.287459
 H        -0.339965         0.740295         1.248835
 H        -0.716415        -0.186613        -0.195562
 H         1.863163        -0.310822        -2.165860
 H         1.716020         1.390865        -1.633870
 H         4.411423         0.701474        -0.813138
 H         3.093459         2.373632         1.417173
