19
Iteration:   262
 C         4.383775        -1.892509         0.679391
 C         3.334053        -0.769651         0.465716
 O         2.196897        -1.442341        -0.042424
 C         1.530225        -0.096162        -0.052293
 C         0.012141         0.151676         0.236393
 C         2.210505         0.750431        -1.129607
 C         3.471652         0.732519        -0.221074
 C         2.625611         0.422795         0.934733
 O         2.451648         0.802109         2.278109
 H         3.926804        -2.766563         1.202201
 H         4.575243        -2.249990        -0.344618
 H         5.192837        -1.487368         1.191030
 H         0.033774         0.979163         0.893910
 H        -0.295147         0.530236        -0.713326
 H        -0.346109        -0.716982         0.699707
 H         2.152034         0.496125        -2.099039
 H         2.010068         1.819685        -1.013599
 H         4.587136         0.971617        -0.349916
 H         1.736171         1.504520         2.240181
