19
Iteration:  1166
 C         4.346084        -1.655005         1.069641
 C         3.341117        -0.823451         0.318147
 O         2.118399        -1.502795        -0.115104
 C         1.452577        -0.092188        -0.015516
 C        -0.020237        -0.091993         0.235757
 C         2.105321         0.848050        -1.016040
 C         3.412311         0.516061        -0.407639
 C         2.686147         0.321707         0.897280
 O         2.700846         1.027378         2.109549
 H         3.929673        -1.913810         2.057225
 H         4.835963        -2.670170         0.651201
 H         5.181123        -0.862591         1.169748
 H        -0.190495         0.157948         1.295207
 H        -0.483975         0.547300        -0.511790
 H        -0.464463        -1.088047         0.267546
 H         1.843550         0.649038        -2.069024
 H         1.650616         1.928872        -0.787968
 H         4.342700         1.120057        -0.488904
 H         3.133710         1.883529         1.946271
