19
Iteration:  1200
 C         4.275819        -1.633295         1.022512
 C         3.189967        -0.736997         0.415728
 O         2.087549        -1.347689        -0.162378
 C         1.461954         0.014025        -0.080175
 C        -0.057152        -0.287872         0.258128
 C         2.179937         0.674651        -1.238274
 C         3.411105         0.599238        -0.352382
 C         2.577449         0.506866         1.000550
 O         2.911182         0.913744         2.236913
 H         4.252727        -1.695623         2.135635
 H         4.368985        -2.740975         0.602708
 H         5.349284        -1.299481         0.891858
 H        -0.180251        -0.041923         1.313349
 H        -0.875633         0.251758        -0.219695
 H        -0.141491        -1.358482         0.089889
 H         2.172548        -0.070345        -2.038604
 H         1.969967         1.758924        -1.575687
 H         4.386817         1.068205        -0.453824
 H         3.013445         1.870083         2.174437
