19
Iteration:  2288
 C         4.352776        -1.857278         1.064685
 C         3.269641        -0.921475         0.535371
 O         2.001526        -1.444834         0.342586
 C         1.421539        -0.148160         0.170146
 C         0.118189         0.189781         0.643511
 C         1.926110         0.429773        -1.242853
 C         3.327642         0.187595        -0.615133
 C         2.794826         0.455736         0.710917
 O         2.967151         1.534855         1.559156
 H         3.774523        -2.668980         1.633454
 H         4.782893        -2.227974         0.081689
 H         5.052966        -1.247692         1.654210
 H         0.153042         0.396598         1.726253
 H        -0.074676         1.114383         0.149163
 H        -0.692447        -0.459727         0.353132
 H         1.766901        -0.168766        -2.155897
 H         1.624947         1.514861        -1.409246
 H         4.233303         0.689075        -0.947064
 H         2.126703         2.023802         1.710667
