19
Iteration:  2147charge 0 multiplicity 1
 C         4.293967        -1.774399         1.137014
 C         3.189624        -0.813396         0.491439
 O         1.854705        -1.394733         0.316024
 C         1.401070        -0.046704         0.107594
 C        -0.023198        -0.102567         0.593442
 C         2.021310         0.358687        -1.296265
 C         3.420222         0.352195        -0.629928
 C         2.727823         0.616831         0.702879
 O         3.197771         1.379404         1.700197
 H         4.668045        -1.042186         1.939838
 H         3.645765        -2.568651         1.581732
 H         5.086010        -2.272119         0.534493
 H         0.014870        -1.014985         1.257952
 H        -0.157341         0.756430         1.250425
 H        -0.861902        -0.079197        -0.140019
 H         1.925667        -0.467740        -2.010931
 H         1.793482         1.377440        -1.777340
 H         4.320562         0.590054        -1.192991
 H         3.126571         2.324060         1.448206
