19
Iteration:  1856charge 0 multiplicity 1
 C         4.386737        -1.762207         0.936751
 C         3.207855        -0.901994         0.533485
 O         1.994767        -1.465405         0.213215
 C         1.477823        -0.028731         0.004232
 C         0.012057        -0.042055         0.588649
 C         2.098166         0.430918        -1.276096
 C         3.401719         0.443812        -0.511569
 C         2.756239         0.435901         0.843640
 O         2.770341         1.417960         1.836392
 H         4.981016        -1.447715         1.891751
 H         3.937626        -2.719128         1.139524
 H         5.177602        -1.905646         0.121641
 H        -0.264314        -0.991250         1.072636
 H         0.110444         0.740753         1.342316
 H        -0.704026         0.309794        -0.198814
 H         2.135741        -0.086789        -2.291594
 H         1.811612         1.487828        -1.339357
 H         4.470380         0.683148        -0.840961
 H         2.775801         2.220658         1.310371
