19
Iteration:  4237charge 0 multiplicity 1
 C         4.482040        -1.597644         0.782740
 C         3.275471        -0.797499         0.455268
 O         2.026070        -1.415911         0.309273
 C         1.445386        -0.082652         0.155143
 C        -0.103002         0.125831         0.187561
 C         2.067544         0.270610        -1.207213
 C         3.403132         0.378820        -0.452593
 C         2.686360         0.518824         0.879254
 O         2.870118         1.174568         2.087635
 H         4.364085        -2.578375         0.120620
 H         5.365659        -1.076244         0.517543
 H         4.555664        -2.001553         1.861726
 H        -0.574327        -0.795919         0.018845
 H        -0.556775         0.795342         0.918116
 H        -0.250918         0.711842        -0.678662
 H         2.105523        -0.460696        -2.034288
 H         1.731987         1.343576        -1.568318
 H         4.349558         0.598352        -0.864220
 H         2.257697         1.965603         2.203713
