19
Iteration:  4137
 C         4.202515        -1.819090         1.146567
 C         3.220467        -0.811339         0.457583
 O         2.134520        -1.459896         0.085944
 C         1.505653        -0.008992         0.028392
 C         0.092927        -0.105523         0.551244
 C         2.053390         0.552862        -1.247282
 C         3.380411         0.456368        -0.528807
 C         2.689307         0.499430         0.812239
 O         2.856188         1.289429         1.837682
 H         5.043469        -2.168777         0.422243
 H         4.804190        -1.544581         2.085993
 H         3.504529        -2.725280         1.130461
 H        -0.042226        -0.984300         1.213623
 H        -0.109887         0.859669         1.049130
 H        -0.584338        -0.263163        -0.200329
 H         1.855247         0.020162        -2.202124
 H         1.724532         1.666490        -1.262960
 H         4.356614         0.942950        -0.760651
 H         2.633375         2.200189         1.530180
