19
Iteration:  3414charge 0 multiplicity 1
 C         4.357305        -1.783934         0.929848
 C         3.228504        -0.819031         0.568519
 O         1.970738        -1.393486         0.301441
 C         1.512286         0.014291         0.063795
 C        -0.020752         0.081329         0.388603
 C         2.105440         0.307122        -1.325693
 C         3.407650         0.331167        -0.469519
 C         2.677394         0.480569         0.825741
 O         2.878626         1.352810         1.893127
 H         4.185013        -2.749190         0.396007
 H         5.241644        -1.340554         0.460555
 H         4.575770        -2.014224         2.017897
 H        -0.301623         1.134283         0.523174
 H        -0.660980        -0.421588        -0.320790
 H        -0.111739        -0.474699         1.384653
 H         1.872620        -0.590026        -1.967751
 H         1.958613         1.322821        -1.693656
 H         4.383271         0.622950        -0.888395
 H         2.818993         2.267044         1.636835
