19
Iteration:  3153charge 0 multiplicity 1
 C         4.189087        -1.566758         1.296570
 C         3.210833        -0.878377         0.458770
 O         2.022313        -1.497650         0.268199
 C         1.454639        -0.025994         0.056239
 C         0.118816         0.169260         0.658891
 C         1.965728         0.258538        -1.326884
 C         3.375581         0.171450        -0.729619
 C         2.839401         0.504858         0.649982
 O         2.967226         1.377103         1.737322
 H         5.184727        -1.003495         1.373305
 H         3.614159        -1.665520         2.231897
 H         4.330779        -2.631915         0.896165
 H         0.119556        -0.151881         1.672128
 H        -0.355002         1.114343         0.463208
 H        -0.673002        -0.510019         0.225712
 H         1.723627        -0.531268        -2.047481
 H         1.742074         1.328080        -1.486719
 H         4.289904         0.570151        -1.019398
 H         3.115085         2.250396         1.255559
