19
Iteration:  4499charge 0 multiplicity 1
 C         4.172209        -1.815174         1.111916
 C         3.295004        -0.780946         0.405977
 O         2.102316        -1.415967        -0.030275
 C         1.492073        -0.050400         0.021333
 C         0.100987        -0.219398         0.557577
 C         2.078837         0.581190        -1.334361
 C         3.434726         0.474497        -0.457606
 C         2.625814         0.490047         0.842205
 O         2.785515         1.384001         1.924731
 H         4.104450        -2.774443         0.481566
 H         5.154482        -1.414812         1.021680
 H         4.075865        -2.094283         2.200260
 H        -0.488978        -1.058219         0.138228
 H         0.154113        -0.197363         1.699356
 H        -0.496916         0.770425         0.438317
 H         1.919683        -0.022416        -2.174530
 H         2.017320         1.677767        -1.484415
 H         4.377588         0.932461        -0.564596
 H         3.345768         0.985509         2.581355
