19
Iteration:  4034
 C         4.434753        -1.669460         0.937141
 C         3.247763        -0.821228         0.530348
 O         1.984370        -1.415294         0.121744
 C         1.451029        -0.055273         0.149630
 C        -0.100846        -0.005625         0.220473
 C         2.070148         0.421423        -1.204990
 C         3.406239         0.437874        -0.485000
 C         2.694529         0.506929         0.878559
 O         2.942968         1.155624         2.051736
 H         4.202391        -2.655122         0.624722
 H         5.276375        -1.326371         0.334178
 H         4.701385        -1.572024         1.974619
 H        -0.265493         0.531231         1.127274
 H        -0.578647         0.626642        -0.515883
 H        -0.648514        -0.961895         0.348207
 H         1.896056        -0.237170        -2.094975
 H         1.901543         1.446038        -1.487380
 H         4.289028         0.860233        -0.854999
 H         2.714913         2.100902         1.892822
