19
Iteration:  2401charge 0 multiplicity 1
 C         4.501228        -1.638485         0.958373
 C         3.257456        -0.900626         0.401043
 O         1.956412        -1.508927         0.519442
 C         1.422746        -0.070778         0.176539
 C         0.032606         0.315465         0.423620
 C         1.819911         0.216615        -1.290805
 C         3.301036         0.210923        -0.626598
 C         2.718454         0.511000         0.769163
 O         3.037293         1.437937         1.756823
 H         4.435368        -1.509470         2.071149
 H         4.661790        -2.668779         0.766603
 H         5.518319        -1.211587         0.684030
 H        -0.568173         0.172099         1.276438
 H         0.043434         1.336382         0.041095
 H        -0.443405        -0.235699        -0.380264
 H         1.518999        -0.650469        -1.941551
 H         1.661332         1.160294        -1.795139
 H         4.223291         0.650877        -0.973866
 H         3.174142         0.805874         2.528452
