19
Iteration:  4350charge 0 multiplicity 1
 C         4.254144        -1.704293         1.115759
 C         3.356767        -0.812802         0.377591
 O         2.090260        -1.429976         0.127220
 C         1.481994        -0.131868         0.043141
 C         0.082897        -0.066206         0.513118
 C         2.034988         0.515975        -1.239543
 C         3.425582         0.391069        -0.598486
 C         2.668941         0.520753         0.797937
 O         2.729028         1.303081         1.865191
 H         4.241376        -2.808469         0.937955
 H         5.363842        -1.265506         1.090212
 H         3.795258        -1.693093         2.115501
 H        -0.739554         0.102706        -0.149079
 H        -0.042479        -0.919678         1.102647
 H        -0.027672         0.757979         1.257105
 H         1.794658        -0.034570        -2.246534
 H         1.807561         1.604935        -1.305555
 H         4.257953         1.062416        -0.759605
 H         3.541357         1.113782         2.378442
