19
Iteration:   850charge 0 multiplicity 1
 C         4.320700        -1.902471         0.871982
 C         3.375237        -0.712744         0.441227
 O         2.204520        -1.377922        -0.038257
 C         1.547284        -0.089567         0.045836
 C        -0.040201        -0.210477         0.237734
 C         2.052543         0.690283        -1.123311
 C         3.507878         0.613556        -0.446281
 C         2.753295         0.461822         0.914516
 O         2.475530         1.186722         2.215959
 H         3.608160        -2.600838         1.208402
 H         4.905288        -2.275835        -0.041104
 H         5.146502        -1.641280         1.527760
 H        -0.301332        -0.270020         1.366274
 H        -0.604474         0.701194        -0.192077
 H        -0.245801        -1.234171        -0.230625
 H         2.012433         0.088135        -2.063266
 H         1.643213         1.716677        -1.276350
 H         4.227210         1.344236        -0.697171
 H         3.291942         1.471412         2.686131
