19
Iteration:  3966charge 0 multiplicity 1
 C         4.229175        -1.705329         1.147421
 C         3.323147        -0.848601         0.396486
 O         2.076303        -1.506664        -0.134183
 C         1.457910        -0.051276         0.008796
 C         0.114162        -0.026157         0.549865
 C         2.059430         0.624905        -1.198928
 C         3.457866         0.411924        -0.441785
 C         2.670136         0.409372         0.852392
 O         2.734243         1.236421         1.937209
 H         3.724035        -2.509574         1.739675
 H         4.826126        -2.134202         0.436531
 H         4.937959        -1.213554         1.801081
 H         0.303517         0.561031         1.441575
 H        -0.791201         0.342786        -0.033747
 H         0.097811        -1.156327         0.821185
 H         1.573484         0.196650        -2.077798
 H         1.998324         1.731327        -1.246717
 H         4.388141         1.050790        -0.758319
 H         2.995266         2.109037         1.672610
