19
Iteration:   281
 C         4.418718        -1.796360         0.719003
 C         3.363314        -0.793679         0.397866
 O         2.098092        -1.407942        -0.104613
 C         1.486132        -0.055608         0.020929
 C         0.030476         0.136455         0.128707
 C         2.220566         0.762956        -1.097833
 C         3.475545         0.630696        -0.272015
 C         2.615934         0.323927         1.061132
 O         2.491304         0.808204         2.315680
 H         3.922365        -2.623513         1.255259
 H         4.748756        -2.252741        -0.251766
 H         5.358670        -1.335269         1.216563
 H        -0.073727         0.961873         0.902890
 H        -0.390303         0.615340        -0.866643
 H        -0.488245        -0.839255         0.573333
 H         2.329721         0.186782        -2.150452
 H         1.751172         1.720653        -1.145035
 H         4.309157         1.284805        -0.313972
 H         2.535057         1.799915         2.346500
