19
Iteration:  4320charge 0 multiplicity 1
 C         4.294056        -1.749613         1.165645
 C         3.288680        -0.880111         0.498983
 O         2.039762        -1.468605        -0.021561
 C         1.532623        -0.114901         0.041395
 C         0.027585        -0.135080         0.559111
 C         2.066417         0.630809        -1.285921
 C         3.396384         0.506176        -0.597826
 C         2.682712         0.449616         0.859272
 O         2.779148         1.363377         1.884673
 H         4.106645        -2.749091         1.091155
 H         5.397958        -1.626783         0.905252
 H         4.079433        -1.447739         2.209118
 H        -0.936242        -0.278173        -0.089176
 H         0.014090        -1.051388         1.251163
 H        -0.156629         0.792839         1.086614
 H         1.959759        -0.083497        -2.087251
 H         1.760210         1.553888        -1.648601
 H         4.355855         0.704708        -0.928566
 H         3.618072         1.830095         1.929497
