19
Iteration:  1978
 C         4.332617        -1.602511         1.126590
 C         3.172867        -0.887455         0.441846
 O         1.874707        -1.334293         0.132405
 C         1.371980         0.048915         0.056785
 C        -0.014252        -0.163913         0.502655
 C         2.026880         0.474374        -1.258073
 C         3.445125         0.258370        -0.563719
 C         2.694535         0.452029         0.827685
 O         3.166901         1.311852         1.859054
 H         4.183898        -2.698889         0.970095
 H         5.396691        -1.365284         0.781768
 H         4.417604        -1.528381         2.265307
 H        -0.060424         0.018762         1.530682
 H        -0.744719         0.319712        -0.149721
 H        -0.255761        -1.202039         0.363821
 H         1.653579        -0.175214        -2.127039
 H         1.863176         1.537492        -1.427490
 H         4.403041         0.730894        -0.800763
 H         2.889867         2.208094         1.548964
