19
Iteration:  1211
 C         4.261589        -1.607203         0.937681
 C         3.276043        -0.722569         0.430625
 O         2.090117        -1.314332        -0.096927
 C         1.363711        -0.004287        -0.022381
 C        -0.013494        -0.280696         0.208659
 C         2.198304         0.560595        -1.271505
 C         3.428477         0.596511        -0.333591
 C         2.614439         0.490228         0.920928
 O         2.919178         0.937044         2.329717
 H         3.989216        -1.693162         1.999993
 H         3.842247        -2.593242         0.466675
 H         5.277392        -1.222094         0.662357
 H        -0.141297        -0.181443         1.288742
 H        -0.662171         0.401523        -0.343443
 H        -0.314115        -1.301273         0.025650
 H         2.143480         0.001005        -2.206240
 H         1.977842         1.674718        -1.546018
 H         4.310588         1.133315        -0.611854
 H         2.653222         1.863137         2.527139
