19
Iteration:  2540
 C         4.439477        -1.538243         0.910933
 C         3.179092        -0.815989         0.628664
 O         1.871272        -1.412914         0.494214
 C         1.336176        -0.086870         0.129761
 C        -0.107979         0.121542         0.425748
 C         1.985522         0.163993        -1.253409
 C         3.329111         0.093851        -0.629646
 C         2.745688         0.535343         0.727382
 O         3.259783         1.507555         1.656473
 H         4.156098        -2.386092         1.571922
 H         4.838040        -1.767928        -0.033644
 H         5.158879        -0.863513         1.380308
 H        -0.040871        -0.538362         1.359913
 H        -0.198586         1.107404         0.858302
 H        -0.836061        -0.339299        -0.293968
 H         1.731038        -0.634665        -1.963305
 H         1.706972         1.105182        -1.700088
 H         4.336389         0.323090        -0.945223
 H         2.936928         1.246118         2.509644
