19
Iteration:  3751charge 0 multiplicity 1
 C         4.485758        -1.625250         0.821172
 C         3.237239        -0.821191         0.456241
 O         1.979548        -1.447291         0.114639
 C         1.510084         0.003074         0.074292
 C         0.037718         0.198617         0.364646
 C         2.100559         0.506244        -1.219751
 C         3.424230         0.401113        -0.482155
 C         2.765327         0.482340         0.875683
 O         2.651274         0.933899         2.106742
 H         4.268490        -2.642862         0.387213
 H         5.427711        -1.256598         0.454650
 H         4.618361        -1.815052         1.885150
 H        -0.386867         0.994233        -0.249396
 H        -0.592426        -0.712906         0.267491
 H        -0.082848         0.366060         1.507725
 H         1.882136        -0.144327        -2.092345
 H         2.136655         1.529770        -1.511768
 H         4.481292         0.809686        -0.498099
 H         2.185599         1.775942         2.058592
