19
Iteration:  4171charge 0 multiplicity 1
 C         4.324612        -1.725263         1.200418
 C         3.279454        -0.921072         0.288431
 O         2.078908        -1.507922        -0.037858
 C         1.388830        -0.058786         0.043509
 C        -0.037904        -0.067948         0.594172
 C         2.122020         0.565656        -1.171913
 C         3.404862         0.402764        -0.494822
 C         2.741439         0.482649         0.818957
 O         2.824195         1.372100         1.885220
 H         5.175582        -2.221959         0.521997
 H         4.684158        -1.380868         2.160381
 H         3.796527        -2.661901         1.627057
 H        -0.337097        -1.016035         0.969040
 H        -0.211364         0.736993         1.329831
 H        -0.576414         0.277668        -0.218435
 H         2.010406         0.099583        -2.166226
 H         1.797720         1.684060        -1.245622
 H         4.278107         0.738849        -0.954470
 H         3.021359         2.218421         1.491743
