19
Iteration:  1129charge 0 multiplicity 1
 C         4.508966        -1.741624         0.802118
 C         3.331204        -0.864424         0.432984
 O         2.065759        -1.420978        -0.024840
 C         1.452539        -0.086304        -0.044470
 C        -0.033637         0.022955         0.296804
 C         2.182952         0.614231        -1.192915
 C         3.453749         0.548845        -0.316362
 C         2.612841         0.416771         0.979431
 O         2.585743         1.076998         2.195212
 H         4.193697        -2.626615         1.371912
 H         5.089243        -1.958469        -0.007528
 H         5.091741        -1.215018         1.515193
 H        -0.109325         0.394751         1.311309
 H        -0.613020         0.742668        -0.277751
 H        -0.465281        -0.971978         0.152305
 H         2.394370        -0.037628        -2.062953
 H         1.884782         1.566670        -1.444344
 H         4.359714         1.099134        -0.435240
 H         2.407171         2.015555         2.092115
