19
Iteration:  4841
 C         4.237246        -1.924668         0.902157
 C         3.314802        -0.863445         0.443498
 O         2.065073        -1.404187        -0.015648
 C         1.506590        -0.093913         0.059811
 C         0.042034        -0.308372         0.466540
 C         2.146876         0.798682        -1.180980
 C         3.475464         0.491380        -0.420575
 C         2.687728         0.421983         0.915047
 O         2.722394         1.464623         1.907390
 H         4.704449        -2.726900         0.350395
 H         5.109528        -1.447401         1.502792
 H         3.533932        -2.450923         1.578395
 H        -0.527802        -0.259287        -0.465695
 H        -0.087207        -1.197423         1.054077
 H        -0.292995         0.663776         0.898086
 H         1.948383         0.550450        -2.262466
 H         1.856864         1.857133        -1.098190
 H         4.414657         1.009314        -0.496853
 H         2.581313         1.223929         2.861518
