19
Iteration:  1570
 C         4.394462        -1.665222         0.886882
 C         3.293739        -0.763671         0.506665
 O         2.031711        -1.441333         0.141974
 C         1.414290        -0.124276         0.077612
 C        -0.057348        -0.017624         0.267518
 C         2.102718         0.399170        -1.251590
 C         3.451602         0.561057        -0.552265
 C         2.705560         0.517390         0.866517
 O         2.746002         1.194341         2.156964
 H         4.588829        -1.570423         1.984339
 H         4.169400        -2.743745         0.736877
 H         5.312002        -1.370263         0.358119
 H        -0.427675        -0.729160         1.054038
 H        -0.296524         1.001944         0.681203
 H        -0.723766        -0.242551        -0.594104
 H         2.035405        -0.385665        -2.011565
 H         1.789925         1.404176        -1.610372
 H         4.495650         0.831906        -0.849402
 H         3.712444         1.316527         2.287010
