19
Iteration:   904
 C         4.564522        -1.558532         0.730873
 C         3.212345        -0.965317         0.533827
 O         2.052888        -1.461324        -0.045334
 C         1.386505        -0.058401        -0.017217
 C        -0.079172        -0.070835         0.304993
 C         2.289659         0.601859        -1.179761
 C         3.490818         0.436218        -0.200540
 C         2.612129         0.381309         0.969027
 O         2.528204         1.208795         2.110691
 H         4.636871        -2.434744         1.305106
 H         5.058259        -1.827358        -0.241567
 H         5.176745        -0.874219         1.275168
 H        -0.244311        -1.004962         0.881074
 H        -0.313732         0.833182         0.901060
 H        -0.605836         0.127025        -0.631163
 H         2.366271         0.259641        -2.171157
 H         1.879656         1.657071        -1.191335
 H         4.486205         0.739525        -0.398290
 H         3.289637         1.799986         1.965124
