19
Iteration:  3944charge 0 multiplicity 1
 C         4.390769        -1.727882         0.971226
 C         3.281502        -0.875200         0.415200
 O         2.035251        -1.446152        -0.005263
 C         1.444603        -0.147410         0.032074
 C        -0.018226         0.032605         0.480234
 C         2.166080         0.567991        -1.303358
 C         3.424969         0.485341        -0.420853
 C         2.745260         0.413940         0.898108
 O         2.709372         1.202627         2.031808
 H         4.006473        -2.061644         1.972771
 H         4.827414        -2.545605         0.531563
 H         5.161074        -1.034452         1.316917
 H         0.071573         0.822764         1.204790
 H        -0.660968         0.453172        -0.336085
 H        -0.559411        -0.865812         0.918160
 H         1.937671         0.189151        -2.290331
 H         1.628663         1.514870        -1.156136
 H         4.505544         0.707124        -0.763455
 H         2.714610         2.154220         1.728993
