19
Iteration:   524
 C         4.318656        -1.808429         0.756696
 C         3.225976        -0.850417         0.397645
 O         2.057383        -1.341447        -0.214721
 C         1.430618         0.105749        -0.011326
 C         0.004030        -0.205712         0.208056
 C         2.286382         0.826743        -1.137243
 C         3.470722         0.611213        -0.203549
 C         2.646145         0.412167         1.055786
 O         2.653071         0.996128         2.291272
 H         3.796709        -2.485189         1.388685
 H         4.760722        -2.149948        -0.148448
 H         5.063673        -1.354332         1.322891
 H        -0.103536        -0.534934         1.236245
 H        -0.671329         0.645366        -0.011898
 H        -0.229130        -1.009408        -0.455805
 H         2.290379         0.306577        -2.126527
 H         1.970636         1.813678        -1.328094
 H         4.494297         0.937610        -0.239004
 H         3.427339         0.705733         2.773637
