19
Iteration:  3011
 C         4.348928        -1.634835         1.140896
 C         3.243075        -0.865163         0.498553
 O         1.945038        -1.483459         0.324336
 C         1.447058        -0.124086         0.105841
 C         0.107244         0.234122         0.741848
 C         2.039933         0.199181        -1.398213
 C         3.361873         0.169370        -0.613230
 C         2.724634         0.480592         0.718467
 O         2.952391         1.552092         1.535698
 H         5.112773        -0.956658         1.678941
 H         3.804529        -2.248835         1.908798
 H         5.004140        -2.374133         0.554055
 H         0.045864        -0.351436         1.619540
 H        -0.108445         1.309171         0.784273
 H        -0.656468        -0.197587         0.063992
 H         1.554300        -0.626598        -1.946464
 H         1.798543         1.255362        -1.642419
 H         4.449553         0.371146        -0.798171
 H         2.135223         1.656466         2.099584
