19
Iteration:  2524
 C         4.396298        -1.672168         0.979229
 C         3.233978        -0.889127         0.538602
 O         1.894490        -1.415469         0.403513
 C         1.382308        -0.081181         0.192897
 C        -0.112204         0.038519         0.558199
 C         1.943387         0.192011        -1.259145
 C         3.338714         0.192920        -0.577534
 C         2.805278         0.576334         0.773585
 O         3.216430         1.603438         1.569765
 H         4.171595        -2.601708         1.480171
 H         5.081575        -2.064849         0.144852
 H         5.062121        -1.122797         1.673735
 H        -0.712375        -0.451035         1.402139
 H        -0.414032         1.108007         0.439387
 H        -0.618147        -0.222368        -0.402670
 H         1.696121        -0.568793        -2.029236
 H         1.767768         1.244029        -1.618657
 H         4.290011         0.304257        -1.141807
 H         2.822488         1.531795         2.437572
