19
Iteration:  1594charge 0 multiplicity 1
 C         4.474439        -1.536720         0.868535
 C         3.219502        -0.815331         0.524483
 O         1.906545        -1.447361         0.282430
 C         1.369131        -0.039188        -0.043933
 C        -0.009381        -0.068431         0.258533
 C         2.136185         0.524719        -1.296271
 C         3.388476         0.375752        -0.421332
 C         2.690433         0.460174         0.894567
 O         2.835756         1.204908         2.025358
 H         4.582924        -1.685726         2.014868
 H         4.615419        -2.470831         0.434969
 H         5.312196        -0.902112         0.564660
 H        -0.230069        -1.127110         0.568538
 H        -0.501906         0.589990         1.006924
 H        -0.617325        -0.060667        -0.645688
 H         2.090273         0.010547        -2.249357
 H         2.204900         1.578935        -1.448300
 H         4.443960         0.564530        -0.532414
 H         3.749232         1.012871         2.381133
