19
Iteration:   672charge 0 multiplicity 1
 C         4.453455        -1.851391         0.819424
 C         3.360034        -0.858425         0.417180
 O         2.136747        -1.456513        -0.185767
 C         1.487912        -0.162625         0.022699
 C        -0.054380        -0.084445         0.184680
 C         2.114206         0.868701        -0.965025
 C         3.472826         0.558246        -0.201227
 C         2.627154         0.336819         0.994161
 O         2.590796         1.234610         2.039499
 H         4.024625        -2.634868         1.403065
 H         4.832215        -2.320391        -0.086522
 H         5.122893        -1.219016         1.342608
 H        -0.519800         0.457547        -0.668278
 H        -0.585648        -1.028366         0.388800
 H        -0.154384         0.514519         1.155047
 H         1.873453         0.802884        -2.027826
 H         1.868238         1.966686        -0.650620
 H         4.397630         1.087396        -0.236330
 H         2.731739         0.679089         2.875952
