19
Iteration:  4760
 C         4.546646        -1.583366         0.873743
 C         3.278190        -0.850331         0.440315
 O         2.000279        -1.464217         0.288010
 C         1.455747        -0.051298         0.086299
 C        -0.030361         0.180025         0.140214
 C         2.045841         0.453211        -1.305678
 C         3.377939         0.562310        -0.419407
 C         2.704847         0.461098         0.864567
 O         2.703928         0.982370         2.124868
 H         4.591578        -2.513111         0.261295
 H         5.216140        -0.889255         0.476150
 H         4.931867        -1.588718         1.918115
 H        -0.369424         0.018621        -0.870543
 H        -0.557248        -0.503116         0.934131
 H        -0.301410         1.125222         0.640321
 H         2.123261        -0.226728        -2.183853
 H         1.694956         1.572364        -1.471580
 H         4.487774         0.858619        -0.633070
 H         3.125255         0.231147         2.601850
