19
Iteration:  1051
 C         4.459154        -1.736887         0.834118
 C         3.321466        -0.849033         0.408732
 O         2.133893        -1.502734        -0.027306
 C         1.480706        -0.139065         0.072878
 C        -0.096272        -0.026022         0.114510
 C         2.088589         0.635609        -1.029945
 C         3.415913         0.566274        -0.317139
 C         2.669983         0.384634         1.004967
 O         2.667051         1.191125         2.128914
 H         4.232210        -2.505721         1.560564
 H         4.930171        -2.238382         0.083379
 H         5.229225        -1.133994         1.285349
 H        -0.618182        -0.579242         0.900833
 H        -0.212068         1.061949         0.236273
 H        -0.515096        -0.311031        -0.852183
 H         1.936068         0.317881        -2.066934
 H         1.743600         1.597909        -0.942791
 H         4.441791         1.020240        -0.437879
 H         2.707918         2.158637         1.984507
