19
Iteration:  4598charge 0 multiplicity 1
 C         4.504491        -1.649243         0.762128
 C         3.254809        -0.821208         0.529962
 O         1.988306        -1.475133         0.203756
 C         1.422725        -0.124453         0.066174
 C        -0.019588         0.096144         0.130345
 C         2.073667         0.410797        -1.203862
 C         3.381179         0.431241        -0.389554
 C         2.631937         0.456398         0.972071
 O         2.852922         1.306877         2.061066
 H         4.810155        -1.855412        -0.282783
 H         5.236767        -0.994096         1.239393
 H         4.567403        -2.412761         1.555126
 H        -0.610929        -0.144258        -0.741321
 H        -0.382897        -0.627349         0.838024
 H        -0.257677         1.090697         0.599362
 H         1.942802        -0.413861        -1.862517
 H         1.817145         1.373051        -1.679955
 H         4.363046         0.807003        -0.693310
 H         2.826617         0.716728         2.820085
