19
Iteration:   454charge 0 multiplicity 1
 C         4.559258        -1.768943         0.721286
 C         3.350805        -0.955807         0.384185
 O         2.069881        -1.490302        -0.248706
 C         1.481097        -0.121523         0.001552
 C        -0.000182         0.215320         0.222438
 C         2.135808         0.818041        -0.987594
 C         3.443348         0.600463        -0.185545
 C         2.663863         0.319615         1.013588
 O         2.422482         0.919248         2.219687
 H         4.185387        -2.301997         1.580144
 H         4.922259        -2.208771        -0.221941
 H         5.413768        -1.114289         1.075974
 H         0.183545         1.289768         0.454397
 H        -0.540621         0.095353        -0.701442
 H        -0.407462        -0.306765         1.135515
 H         1.977008         0.603117        -1.996758
 H         1.863595         1.865900        -0.830529
 H         4.448503         1.055988        -0.250588
 H         3.219103         1.291129         2.605234
