19
Iteration:   399charge 0 multiplicity 1
 C         4.321958        -1.835888         0.746946
 C         3.242416        -0.772437         0.419026
 O         1.993843        -1.324085        -0.124354
 C         1.473109         0.015571        -0.088899
 C         0.038397        -0.082018         0.215086
 C         2.313270         0.818072        -1.137936
 C         3.532415         0.735763        -0.250460
 C         2.625371         0.417997         0.983127
 O         2.671006         0.745869         2.337971
 H         3.912538        -2.589032         1.402144
 H         4.664028        -2.508312        -0.051254
 H         5.160018        -1.238635         1.245403
 H        -0.668607         0.639960        -0.222999
 H        -0.448154        -0.925573        -0.241090
 H        -0.058064        -0.019206         1.348641
 H         2.476332         0.368165        -2.107896
 H         1.828125         1.800564        -1.115168
 H         4.519352         1.051286        -0.444167
 H         2.178999         1.541122         2.557442
