19
Iteration:   993charge 0 multiplicity 1
 C         4.233013        -1.547275         1.127041
 C         3.240154        -0.746528         0.370441
 O         2.064306        -1.376774        -0.118341
 C         1.457479         0.009029        -0.046065
 C        -0.019644        -0.322095         0.327128
 C         2.177040         0.631946        -1.248086
 C         3.495482         0.625816        -0.480819
 C         2.687199         0.511418         0.932030
 O         2.825027         0.892531         2.221575
 H         3.876265        -1.698492         2.111627
 H         4.150265        -2.451840         0.458573
 H         5.254060        -1.097642         1.053067
 H        -0.195642        -1.385228         0.708163
 H        -0.473158         0.346030         1.142429
 H        -0.745873         0.066032        -0.444192
 H         2.192422        -0.025170        -2.102257
 H         1.913240         1.715741        -1.498653
 H         4.484630         0.907135        -0.761610
 H         2.836414         1.857778         2.326612
