19
Iteration:  3454charge 0 multiplicity 1
 C         4.307235        -1.970679         1.080810
 C         3.244759        -0.970890         0.415718
 O         2.041767        -1.471718         0.170836
 C         1.356339        -0.126696         0.101922
 C        -0.055357        -0.105800         0.354404
 C         2.025061         0.654589        -1.158290
 C         3.416329         0.425591        -0.416075
 C         2.803191         0.462304         0.911885
 O         2.933777         1.575049         1.721526
 H         3.788497        -2.924356         1.240219
 H         5.206461        -1.933950         0.484208
 H         4.555694        -1.635587         2.092793
 H        -0.607642         0.567602        -0.346064
 H        -0.451420        -1.193345         0.343777
 H        -0.155993         0.206777         1.379595
 H         1.755050         0.547574        -2.238266
 H         1.833591         1.702531        -0.840029
 H         4.491347         0.841861        -0.688583
 H         3.572040         2.188536         1.234843
