19
Iteration:  4902
 C         4.487302        -1.599595         0.770933
 C         3.225844        -0.844047         0.475139
 O         1.990599        -1.487586         0.126803
 C         1.406847        -0.066126        -0.032370
 C        -0.054310         0.092653         0.293814
 C         2.161972         0.489933        -1.206839
 C         3.465035         0.495802        -0.389668
 C         2.629384         0.426078         0.925556
 O         2.846758         1.137241         2.097287
 H         5.288360        -1.548676         0.024638
 H         4.765179        -1.191262         1.718458
 H         4.180180        -2.603975         1.064382
 H        -0.690087        -0.756691         0.013906
 H        -0.196395         0.185641         1.381425
 H        -0.470448         1.078540        -0.084211
 H         2.165065        -0.146037        -2.096270
 H         1.710285         1.483767        -1.437488
 H         4.465314         0.756045        -0.619494
 H         2.288318         0.848866         2.839151
