19
Iteration:   188
 C         4.344370        -1.848815         0.869067
 C         3.257823        -0.876285         0.356678
 O         2.055153        -1.383518        -0.224544
 C         1.503715        -0.045144        -0.083436
 C        -0.019203        -0.063889         0.128919
 C         2.233291         0.937753        -1.025031
 C         3.456766         0.626275        -0.154384
 C         2.553371         0.360038         0.996703
 O         2.739660         0.961366         2.224151
 H         3.927472        -2.612432         1.578800
 H         4.818496        -2.367589         0.019028
 H         5.055000        -1.228475         1.318965
 H        -0.301268         0.931948        -0.224772
 H        -0.510665        -0.830558        -0.390353
 H        -0.109013        -0.074149         1.173724
 H         2.181829         0.840243        -2.107795
 H         1.784955         1.992949        -0.649895
 H         4.476001         1.172242        -0.278370
 H         2.762226         0.287036         2.926197
