19
Iteration:  2737
 C         4.448437        -1.519677         0.916961
 C         3.190390        -0.837107         0.551490
 O         1.893586        -1.424089         0.461848
 C         1.386514        -0.061514         0.115770
 C        -0.120875         0.068949         0.434642
 C         1.982908         0.104623        -1.288335
 C         3.298335         0.208604        -0.563239
 C         2.776179         0.547190         0.861968
 O         3.177547         1.521873         1.670799
 H         5.250250        -1.068691         0.305902
 H         4.790040        -1.367109         1.916784
 H         4.425245        -2.557388         0.567960
 H        -0.212822        -0.701008         1.275846
 H        -0.307806         1.155735         0.774142
 H        -0.775290        -0.201050        -0.467008
 H         1.949567        -0.802383        -1.943289
 H         1.808315         0.975336        -1.917792
 H         4.227450         0.146701        -1.080179
 H         2.932020         1.175731         2.527478
