19
Iteration:  1189charge 0 multiplicity 1
 C         4.342144        -1.635918         1.122132
 C         3.285962        -0.799266         0.424128
 O         2.031692        -1.368753        -0.187666
 C         1.354226        -0.045422        -0.087094
 C        -0.054384        -0.244600         0.307518
 C         2.179889         0.782278        -1.208311
 C         3.432263         0.622887        -0.314115
 C         2.651503         0.393800         0.886634
 O         2.864568         0.955952         2.185503
 H         4.138625        -1.787889         2.212267
 H         4.361518        -2.693623         0.561880
 H         5.275243        -1.044960         0.869375
 H        -0.311492        -0.116845         1.357343
 H        -0.692918         0.259811        -0.420821
 H        -0.216022        -1.322000         0.175895
 H         2.257843         0.291489        -2.199878
 H         1.592809         1.782975        -1.360390
 H         4.471558         0.949804        -0.398081
 H         3.248327         1.836739         2.091059
