19
Iteration:   987charge 0 multiplicity 1
 C         4.212133        -1.600007         1.078419
 C         3.279649        -0.686311         0.388322
 O         2.116967        -1.355616        -0.082482
 C         1.437044        -0.036730         0.028818
 C         0.013855        -0.249545         0.292448
 C         2.142641         0.620599        -1.296727
 C         3.466141         0.604426        -0.456769
 C         2.657702         0.559950         0.877234
 O         2.817863         0.854608         2.246261
 H         3.791094        -1.670276         2.151500
 H         4.223334        -2.554684         0.582011
 H         5.172154        -1.111002         1.080273
 H        -0.152753        -1.242920         0.596402
 H        -0.171960         0.290803         1.204221
 H        -0.707387        -0.087459        -0.486595
 H         2.149712        -0.082687        -2.180901
 H         1.870937         1.606569        -1.552201
 H         4.473331         0.952014        -0.893695
 H         2.655508         1.803452         2.364956
