19
Iteration:  1900
 C         4.464279        -1.694760         0.896660
 C         3.306532        -0.830481         0.478909
 O         2.002699        -1.427705         0.260034
 C         1.444938        -0.091893         0.103634
 C        -0.050590         0.207998         0.434857
 C         2.042540         0.310377        -1.267652
 C         3.357874         0.379327        -0.563335
 C         2.811178         0.466908         0.850225
 O         2.792983         1.255151         1.960235
 H         4.480437        -1.830160         2.008558
 H         4.393403        -2.624027         0.346328
 H         5.370682        -1.106206         0.592233
 H        -0.096405        -0.398038         1.311727
 H        -0.170509         1.233484         0.706836
 H        -0.669909        -0.208836        -0.328895
 H         1.886632        -0.658629        -1.818067
 H         1.675889         1.179374        -1.801062
 H         4.333261         0.590641        -1.043325
 H         2.312251         2.052382         1.738123
