19
Iteration:  4236
 C         4.478667        -1.596429         0.779702
 C         3.268428        -0.804496         0.454823
 O         2.036419        -1.414431         0.311826
 C         1.437138        -0.077364         0.156259
 C        -0.109582         0.129665         0.191908
 C         2.077311         0.267140        -1.216016
 C         3.413536         0.384541        -0.455783
 C         2.687176         0.511739         0.874425
 O         2.870339         1.174615         2.093991
 H         4.390653        -2.558084         0.134619
 H         5.353170        -1.046145         0.520566
 H         4.512168        -2.005841         1.855193
 H        -0.599265        -0.817909         0.016780
 H        -0.572477         0.810866         0.946339
 H        -0.280387         0.682520        -0.686898
 H         2.094183        -0.458953        -2.048111
 H         1.695386         1.338491        -1.540784
 H         4.362650         0.572863        -0.837960
 H         2.275032         1.977691         2.170776
