19
Iteration:  2518charge 0 multiplicity 1
 C         4.385404        -1.769494         1.003602
 C         3.288613        -0.930650         0.470694
 O         1.917087        -1.453327         0.417218
 C         1.398465        -0.071227         0.228712
 C        -0.129786         0.081146         0.515225
 C         1.897604         0.211590        -1.261203
 C         3.341816         0.258128        -0.561971
 C         2.787265         0.536685         0.743976
 O         3.206620         1.676230         1.558237
 H         4.031430        -2.652772         1.583954
 H         5.142295        -2.032320         0.291176
 H         4.932358        -1.113941         1.707483
 H        -0.315487        -0.512646         1.422648
 H        -0.436313         1.122537         0.561761
 H        -0.597243        -0.501336        -0.319038
 H         1.562487        -0.475303        -2.045842
 H         1.723356         1.237909        -1.567944
 H         4.320321         0.456086        -0.956666
 H         2.799929         1.563923         2.469371
