19
Iteration:  3230
 C         4.601564        -1.715126         0.929935
 C         3.249271        -0.935299         0.555616
 O         1.814101        -1.466782         0.520224
 C         1.367988        -0.048728         0.097908
 C        -0.064166         0.266034         0.373277
 C         2.071165         0.176909        -1.295584
 C         3.351826         0.089302        -0.495474
 C         2.748853         0.495391         0.844975
 O         2.936080         1.547816         1.683622
 H         4.981624        -1.105828         1.751391
 H         4.572855        -2.659147         1.437901
 H         5.083469        -1.702228        -0.054231
 H        -0.500713        -0.523295         1.011270
 H        -0.130347         1.137973         1.007876
 H        -0.630803         0.479675        -0.544288
 H         1.876175        -0.432278        -2.183983
 H         1.971066         1.191234        -1.710567
 H         4.323909         0.485198        -0.842819
 H         3.289533         2.326154         1.178807
