19
Iteration:  4554
 C         4.521472        -1.510921         1.022105
 C         3.245317        -0.833138         0.452747
 O         1.983107        -1.508650         0.178511
 C         1.451808        -0.085240        -0.046728
 C         0.020252         0.100026         0.348061
 C         2.073734         0.477409        -1.260805
 C         3.415740         0.423888        -0.555684
 C         2.615893         0.429856         0.858480
 O         2.833491         1.103541         2.029249
 H         4.591712        -2.506713         0.487295
 H         5.480736        -1.028133         0.850471
 H         4.391442        -1.492539         2.142094
 H        -0.763139         0.115467        -0.421073
 H        -0.411819        -0.612015         1.072557
 H         0.075071         1.175404         0.752093
 H         1.933282         0.114892        -2.238074
 H         1.694232         1.531239        -1.270570
 H         4.339649         0.822993        -0.809072
 H         2.240263         0.769351         2.717108
