19
Iteration:  4152
 C         4.226773        -1.833486         1.187065
 C         3.395250        -0.865448         0.470441
 O         2.036492        -1.410704         0.001676
 C         1.465658        -0.142119         0.033555
 C         0.107540        -0.089704         0.538953
 C         1.939463         0.627550        -1.247698
 C         3.468131         0.435876        -0.535091
 C         2.730492         0.389056         0.812782
 O         2.840615         1.373701         1.846579
 H         5.167092        -2.118004         0.601888
 H         4.433169        -1.316727         2.097222
 H         3.579053        -2.678283         1.459590
 H        -0.044637        -0.953817         1.153015
 H        -0.005172         0.672174         1.326028
 H        -0.757308         0.014337        -0.262810
 H         1.653682         0.191580        -2.194972
 H         1.701608         1.672186        -1.281086
 H         4.327197         1.060068        -0.627672
 H         2.686264         2.224915         1.453268
