19
Iteration:  2803charge 0 multiplicity 1
 C         4.377104        -1.624190         1.269249
 C         3.312125        -0.856993         0.442789
 O         1.961813        -1.477671         0.224845
 C         1.440249        -0.072852         0.153951
 C         0.172481         0.104806         0.731587
 C         1.907755         0.281509        -1.324880
 C         3.289557         0.183169        -0.735469
 C         2.744989         0.469996         0.688151
 O         2.888206         1.531393         1.603843
 H         5.322804        -1.547853         0.716872
 H         4.480640        -1.248963         2.301722
 H         4.054799        -2.686927         1.275098
 H         0.059505        -0.435979         1.691500
 H        -0.328566         1.102832         0.778363
 H        -0.559842        -0.480923         0.095141
 H         1.525464        -0.365390        -2.152100
 H         1.844864         1.347900        -1.534611
 H         4.183682         0.692719        -0.959396
 H         3.648633         1.383206         2.235128
