19
Iteration:  1302
 C         4.555747        -1.681837         0.852870
 C         3.224734        -0.845482         0.528992
 O         2.004180        -1.433428        -0.086013
 C         1.496504        -0.060195        -0.031815
 C         0.041394        -0.083675         0.438056
 C         2.270813         0.579393        -1.222379
 C         3.400191         0.543114        -0.283497
 C         2.560026         0.411164         0.929806
 O         2.539551         1.167843         2.044826
 H         4.283130        -2.736351         1.237335
 H         5.105592        -1.802446        -0.050338
 H         5.101793        -1.121640         1.608506
 H        -0.260849        -1.039691         0.854650
 H        -0.117931         0.733265         1.140362
 H        -0.664232         0.249531        -0.308665
 H         2.294548        -0.150678        -2.094594
 H         1.941665         1.519863        -1.594280
 H         4.469235         0.895992        -0.197237
 H         3.304690         1.788420         1.945459
