19
Iteration:  4088
 C         4.478264        -1.604004         0.833118
 C         3.206945        -0.809043         0.598558
 O         1.939842        -1.477742         0.210373
 C         1.450592        -0.084278         0.080837
 C        -0.048138         0.139842         0.294829
 C         2.051352         0.391806        -1.252400
 C         3.425215         0.372623        -0.421365
 C         2.657250         0.509109         0.870451
 O         2.909329         1.159869         2.017072
 H         4.939080        -1.938424        -0.078149
 H         5.173449        -0.891258         1.206526
 H         4.365998        -2.402598         1.521012
 H        -0.479085        -0.005057         1.289478
 H        -0.537522         0.945960        -0.266411
 H        -0.238826        -0.894316        -0.236293
 H         2.011500        -0.387361        -2.021177
 H         1.872500         1.349302        -1.659424
 H         4.365553         0.656695        -0.780828
 H         3.044253         2.094950         1.780992
