19
Iteration:  4217charge 0 multiplicity 1
 C         4.464099        -1.604634         0.863302
 C         3.257583        -0.800361         0.521150
 O         1.946857        -1.518627         0.303477
 C         1.419305        -0.097104         0.016689
 C        -0.135816         0.088199         0.261761
 C         2.119591         0.402673        -1.290813
 C         3.417437         0.427725        -0.534257
 C         2.768298         0.493405         0.909299
 O         2.849556         1.180021         2.086009
 H         4.740398        -2.295361        -0.024787
 H         5.284819        -0.949118         1.074426
 H         4.398147        -2.217394         1.796709
 H        -0.517879        -0.859723         0.509146
 H        -0.218229         0.698369         1.144943
 H        -0.718845         0.627764        -0.497065
 H         2.079441        -0.406460        -2.046190
 H         1.896123         1.360838        -1.775236
 H         4.386507         0.835244        -0.836171
 H         2.963138         2.136151         1.899017
