19
Iteration:  3048
 C         4.433773        -1.735152         0.864524
 C         3.267030        -0.830911         0.620441
 O         1.894238        -1.405717         0.543955
 C         1.441123        -0.080883         0.162093
 C        -0.041355         0.173693         0.395068
 C         2.074893         0.117748        -1.311093
 C         3.369859         0.186468        -0.518038
 C         2.733657         0.581074         0.754406
 O         2.917119         1.567607         1.642402
 H         5.334680        -1.226968         0.663532
 H         4.388100        -1.946439         1.907716
 H         4.310069        -2.635475         0.321812
 H        -0.320246         0.268773         1.488482
 H        -0.496276         1.088931         0.066480
 H        -0.523900        -0.716488         0.012185
 H         1.829389        -0.624368        -2.048551
 H         1.851627         1.025822        -1.855869
 H         4.361278         0.366460        -0.878655
 H         3.697275         1.318106         2.167247
