19
Iteration:  2997
 C         4.311172        -1.660509         1.300359
 C         3.343484        -0.897732         0.435779
 O         1.955764        -1.513343         0.283971
 C         1.423650        -0.099141         0.122066
 C         0.095142         0.208442         0.746185
 C         1.919652         0.213913        -1.258132
 C         3.440114         0.221181        -0.700277
 C         2.754782         0.477909         0.631525
 O         2.950929         1.492984         1.523830
 H         4.872116        -0.990274         1.993333
 H         3.730407        -2.378682         2.004318
 H         4.988703        -2.224878         0.591285
 H        -0.048355        -0.305518         1.745285
 H         0.140185         1.311072         1.003080
 H        -0.800941         0.070500         0.116956
 H         1.893003        -0.403045        -2.223957
 H         1.654161         1.219572        -1.630207
 H         4.239066         0.922007        -1.099764
 H         2.142897         1.970567         1.657788
