19
Iteration:   661
 C         4.416710        -1.822737         0.807400
 C         3.355246        -0.904517         0.371144
 O         2.168106        -1.428083        -0.177766
 C         1.479720        -0.126612         0.044364
 C        -0.033073        -0.025982         0.208145
 C         2.127898         0.815886        -1.011127
 C         3.407008         0.601186        -0.272876
 C         2.696298         0.294906         1.053913
 O         2.534281         1.181788         2.098653
 H         4.079569        -2.547620         1.516878
 H         4.946381        -2.287035        -0.014153
 H         5.243936        -1.398500         1.337694
 H        -0.444122         0.345852        -0.752181
 H        -0.477042        -1.022331         0.381726
 H        -0.410040         0.748198         0.976235
 H         2.107728         0.526936        -2.067394
 H         1.718671         1.881600        -0.760479
 H         4.309851         1.186077        -0.255938
 H         3.051189         0.958592         2.912752
