19
Iteration:  3749
 C         4.482040        -1.613490         0.820089
 C         3.230695        -0.820528         0.471615
 O         1.976261        -1.448505         0.124283
 C         1.503866         0.014245         0.077738
 C         0.053148         0.195870         0.345294
 C         2.091557         0.497097        -1.212204
 C         3.422318         0.408460        -0.482119
 C         2.768842         0.467199         0.878279
 O         2.656266         0.932728         2.099525
 H         4.330882        -2.635016         0.327093
 H         5.403102        -1.230668         0.425263
 H         4.683147        -1.904505         1.875058
 H        -0.361751         0.971509        -0.210954
 H        -0.596169        -0.677645         0.186923
 H        -0.090801         0.385992         1.453865
 H         1.909026        -0.129182        -2.094216
 H         2.084434         1.547150        -1.495891
 H         4.445770         0.748823        -0.513817
 H         2.204106         1.818810         2.115336
