19
Iteration:  2337
 C         4.260912        -1.715996         1.070238
 C         3.187742        -0.842699         0.521678
 O         1.882935        -1.372955         0.342652
 C         1.373108        -0.025270         0.091355
 C         0.006540        -0.026372         0.606598
 C         1.999648         0.258898        -1.294532
 C         3.401164         0.272266        -0.608087
 C         2.780742         0.537474         0.738823
 O         3.183404         1.513432         1.609054
 H         3.974997        -1.944297         2.054072
 H         4.376663        -2.595007         0.493082
 H         5.138142        -1.085973         1.102948
 H        -0.064467        -0.779152         1.388487
 H        -0.380846         0.942763         0.984799
 H        -0.660399        -0.276024        -0.230508
 H         1.668978        -0.501383        -2.028233
 H         1.724638         1.227922        -1.648088
 H         4.411148         0.427185        -0.955625
 H         3.402591         1.290943         2.517414
