19
Iteration:  1651
 C         4.320258        -1.744971         1.035324
 C         3.312435        -0.774883         0.436710
 O         2.109132        -1.490544         0.177312
 C         1.410223        -0.121289         0.026908
 C        -0.006928        -0.070322         0.472640
 C         2.064229         0.450194        -1.273379
 C         3.371325         0.539027        -0.502124
 C         2.683305         0.467584         0.836550
 O         2.891834         1.336752         1.886247
 H         3.827949        -2.729391         1.219852
 H         5.073769        -1.900809         0.239542
 H         4.799559        -1.364405         1.939981
 H        -0.554725        -0.899892        -0.058129
 H        -0.171155         0.018757         1.555706
 H        -0.335851         0.886720        -0.010513
 H         2.195724        -0.115777        -2.199251
 H         1.654807         1.423427        -1.567147
 H         4.291476         1.131296        -0.553621
 H         2.119873         1.507699         2.449911
