19
Iteration:  4924charge 0 multiplicity 1
 C         4.584295        -1.458450         0.844391
 C         3.221945        -0.875843         0.437693
 O         1.924561        -1.440174         0.143572
 C         1.419752        -0.063580         0.118024
 C        -0.031271         0.163298         0.191758
 C         2.136218         0.476603        -1.228901
 C         3.357843         0.360064        -0.473702
 C         2.683980         0.445196         0.901296
 O         2.835127         1.042044         2.176342
 H         5.007291        -1.463418        -0.152260
 H         5.097506        -0.874824         1.587555
 H         4.526605        -2.510485         1.157537
 H        -0.565679        -0.764160        -0.090597
 H        -0.467895         0.452503         1.143681
 H        -0.281617         1.096856        -0.425158
 H         2.085711        -0.192520        -2.080940
 H         1.762063         1.520916        -1.452828
 H         4.351403         0.655173        -0.683619
 H         2.619237         0.318006         2.828269
