19
Iteration:  4811charge 0 multiplicity 1
 C         4.380085        -1.766234         0.884417
 C         3.276364        -0.819973         0.519555
 O         2.050056        -1.397928        -0.080877
 C         1.435743        -0.091421         0.038264
 C        -0.051332        -0.149578         0.383002
 C         2.171574         0.615779        -1.186154
 C         3.443279         0.474366        -0.359088
 C         2.635962         0.384932         0.988956
 O         2.826907         1.342578         1.957201
 H         4.278114        -2.677307         0.229195
 H         5.436807        -1.433531         0.931652
 H         4.211341        -1.922676         1.999720
 H        -0.712434         0.089985        -0.489363
 H        -0.415487        -1.205140         0.756668
 H        -0.218666         0.674487         1.067669
 H         2.021204         0.116431        -2.152617
 H         1.977602         1.685540        -1.329511
 H         4.361747         1.052484        -0.576945
 H         2.299103         1.176217         2.735890
