19
Iteration:   148charge 0 multiplicity 1
 C         4.272387        -1.826356         0.775462
 C         3.270330        -0.730836         0.388160
 O         2.076931        -1.247261        -0.113642
 C         1.398548         0.054481         0.026215
 C        -0.098995        -0.098295        -0.075253
 C         2.196918         0.764168        -1.080862
 C         3.495533         0.630935        -0.321621
 C         2.678525         0.467781         1.069297
 O         2.834515         0.822630         2.483059
 H         3.840915        -2.650710         1.378137
 H         4.722921        -2.324336        -0.098943
 H         5.013458        -1.387770         1.536301
 H        -0.607339         0.697262        -0.749079
 H        -0.340759        -1.060735        -0.622118
 H        -0.695878        -0.042789         0.907268
 H         2.076228         0.105042        -2.048953
 H         1.909334         1.717747        -1.330015
 H         4.484330         1.077440        -0.600101
 H         3.223337        -0.029494         2.782520
