19
Iteration:  2641charge 0 multiplicity 1
 C         4.298052        -1.730819         1.068912
 C         3.247562        -0.856278         0.539014
 O         1.891113        -1.464894         0.329243
 C         1.451658        -0.030851         0.123706
 C         0.097188         0.023424         0.840426
 C         2.079936         0.301760        -1.456170
 C         3.371255         0.219217        -0.610600
 C         2.745022         0.541991         0.707396
 O         2.942117         1.567207         1.525760
 H         4.692903        -1.304688         2.018139
 H         4.005443        -2.738020         1.298616
 H         5.106420        -1.678692         0.298598
 H         0.389331         0.050487         1.860215
 H        -0.499864         0.820264         0.398253
 H        -0.312376        -0.946139         0.685705
 H         1.787513        -0.503720        -2.108357
 H         1.831973         1.270183        -1.841723
 H         4.322574         0.682463        -0.883507
 H         2.621532         1.539779         2.455341
