19
Iteration:  1369
 C         4.387737        -1.676920         1.019138
 C         3.286092        -0.850014         0.411069
 O         2.074917        -1.462965        -0.005810
 C         1.417692        -0.092413         0.048432
 C        -0.038664        -0.137088         0.300479
 C         2.126074         0.663604        -1.242642
 C         3.406713         0.595043        -0.384075
 C         2.657963         0.393601         0.903399
 O         2.801399         1.143476         2.083482
 H         4.752229        -2.556250         0.423219
 H         5.366870        -1.217494         1.167125
 H         4.091032        -2.083798         1.998017
 H        -0.349976        -1.148052         0.594608
 H        -0.223724         0.635137         1.074087
 H        -0.550178         0.307051        -0.565916
 H         2.108694         0.078422        -2.215334
 H         1.646601         1.623561        -1.459174
 H         4.400826         1.093634        -0.400792
 H         2.580015         2.062541         1.900374
