19
Iteration:  1758charge 0 multiplicity 1
 C         4.491933        -1.537459         0.939003
 C         3.213804        -0.808762         0.492395
 O         1.990465        -1.509334         0.171738
 C         1.411970        -0.066751         0.086588
 C        -0.079732         0.020918         0.368685
 C         2.062404         0.288731        -1.267688
 C         3.366519         0.347250        -0.564395
 C         2.725106         0.582339         0.865652
 O         2.868603         1.287561         2.039215
 H         5.318120        -1.661377         0.190598
 H         4.833071        -1.126216         1.810069
 H         4.299909        -2.599759         1.185323
 H        -0.700822        -0.283148        -0.482936
 H        -0.288944        -0.582963         1.203594
 H        -0.145192         1.085694         0.434824
 H         1.678195        -0.520128        -1.890769
 H         1.799669         1.287033        -1.538326
 H         4.346111         0.550465        -1.068241
 H         3.570947         1.922802         2.171784
