19
Iteration:  4665charge 0 multiplicity 1
 C         4.249944        -1.873614         0.967516
 C         3.320420        -0.827176         0.419067
 O         2.077041        -1.428910        -0.086036
 C         1.461482        -0.047980         0.012125
 C         0.019958        -0.225069         0.451046
 C         2.077681         0.708620        -1.156884
 C         3.479259         0.420866        -0.436462
 C         2.705114         0.424754         0.940375
 O         2.808211         1.442666         1.964843
 H         4.963930        -2.065559         0.171086
 H         4.739213        -1.474175         1.922891
 H         3.798525        -2.794543         1.297311
 H        -0.222358        -1.228097         0.152024
 H         0.025549        -0.142304         1.466440
 H        -0.758973         0.558142         0.159908
 H         1.812718         0.135058        -2.016971
 H         1.878263         1.756807        -1.126807
 H         4.495178         0.933002        -0.685810
 H         2.111351         1.585190         2.652827
