19
Iteration:  1562
 C         4.378061        -1.701264         0.909058
 C         3.324434        -0.756155         0.377886
 O         2.118948        -1.469701         0.119845
 C         1.441100        -0.100874         0.055528
 C        -0.081271         0.054078         0.327993
 C         2.050621         0.379831        -1.216407
 C         3.393168         0.561833        -0.477558
 C         2.733733         0.521466         0.923504
 O         2.714586         1.187692         2.093476
 H         4.586539        -1.651503         2.009823
 H         4.083394        -2.695162         0.845557
 H         5.370124        -1.621579         0.468884
 H        -0.441898        -0.657762         1.084309
 H        -0.370985         1.109279         0.408566
 H        -0.439694        -0.367653        -0.614729
 H         2.064639        -0.393649        -1.980189
 H         1.773615         1.313314        -1.618851
 H         4.360893         0.905570        -0.830027
 H         3.559645         1.507041         2.446153
