19
Iteration:  1126
 C         4.504282        -1.721944         0.784708
 C         3.288878        -0.862930         0.417306
 O         2.060899        -1.414544         0.003045
 C         1.480824        -0.080645        -0.059982
 C        -0.042777         0.026684         0.304912
 C         2.196886         0.580616        -1.225280
 C         3.466964         0.563130        -0.279228
 C         2.586758         0.417377         0.974064
 O         2.593225         1.078524         2.207887
 H         4.233325        -2.686892         1.248222
 H         5.119814        -1.996793        -0.059749
 H         5.177341        -1.295879         1.529069
 H        -0.135171         0.299738         1.385819
 H        -0.653997         0.755185        -0.294553
 H        -0.420199        -1.014547         0.212639
 H         2.470936        -0.036609        -2.087757
 H         1.944657         1.574131        -1.570115
 H         4.410932         1.115208        -0.422833
 H         2.363163         2.028141         2.120108
