19
Iteration:  4261
 C         4.519125        -1.708473         0.850145
 C         3.296474        -0.836129         0.560315
 O         1.921942        -1.478611         0.307581
 C         1.480611        -0.104621         0.035856
 C        -0.055821         0.079922         0.214636
 C         2.040971         0.378992        -1.300512
 C         3.403943         0.502260        -0.526672
 C         2.710214         0.463051         0.873164
 O         2.886722         1.283316         2.100119
 H         4.226422        -2.802341         0.554786
 H         5.422663        -1.330866         0.326103
 H         4.771347        -1.762989         1.939111
 H        -0.388538        -0.844940        -0.151812
 H        -0.324033         0.229997         1.223654
 H        -0.502008         0.983353        -0.274197
 H         1.904050        -0.279312        -2.210500
 H         1.452834         1.337266        -1.376543
 H         4.446578         0.913236        -0.739549
 H         2.076743         1.819566         2.143632
