19
Iteration:  4567charge 0 multiplicity 1
 C         4.527707        -1.496900         0.936912
 C         3.304149        -0.842357         0.415978
 O         1.959512        -1.491905         0.187887
 C         1.382469        -0.155893         0.088842
 C        -0.112236         0.154380         0.271571
 C         2.119435         0.477813        -1.278649
 C         3.423009         0.410762        -0.462021
 C         2.700686         0.411528         0.854275
 O         2.834565         1.137692         2.055989
 H         4.811914        -2.429630         0.444711
 H         5.281202        -0.637527         0.723947
 H         4.627986        -1.782161         1.978016
 H        -0.621915         0.174069        -0.743412
 H        -0.492146        -0.525419         1.015282
 H        -0.244799         1.200888         0.856066
 H         2.024931        -0.351090        -1.988400
 H         1.877849         1.464427        -1.597743
 H         4.436825         0.731903        -0.814371
 H         2.215095         0.743570         2.731392
