19
Iteration:  1494charge 0 multiplicity 1
 C         4.412625        -1.645285         0.893678
 C         3.275127        -0.919742         0.380274
 O         1.888955        -1.373262        -0.039741
 C         1.437652        -0.006229         0.021451
 C         0.056953        -0.148149         0.564423
 C         2.337628         0.555362        -1.232973
 C         3.494550         0.393724        -0.314369
 C         2.606464         0.438589         0.887884
 O         2.654928         1.263438         1.992420
 H         4.993100        -1.104103         1.658141
 H         4.244475        -2.650148         1.387927
 H         5.159919        -1.740412         0.072128
 H        -0.058136        -0.139063         1.702295
 H        -0.671087         0.538665         0.023955
 H        -0.187827        -1.246834         0.379036
 H         2.287295        -0.010700        -2.143020
 H         1.998363         1.593991        -1.428251
 H         4.531974         0.825549        -0.562234
 H         2.304080         2.111137         1.687615
