19
Iteration:  3158charge 0 multiplicity 1
 C         4.191809        -1.569058         1.305740
 C         3.238976        -0.904259         0.433059
 O         2.037406        -1.502375         0.285319
 C         1.475115        -0.031730         0.095345
 C         0.085298         0.192117         0.673655
 C         1.976913         0.246476        -1.301408
 C         3.391510         0.211922        -0.711718
 C         2.802663         0.524256         0.582682
 O         2.933525         1.342986         1.707258
 H         5.104684        -1.056851         1.592552
 H         3.682566        -1.772294         2.285217
 H         4.355582        -2.524959         0.813234
 H         0.021891        -0.133363         1.757222
 H        -0.219076         1.274803         0.578696
 H        -0.605821        -0.387698         0.071110
 H         1.693446        -0.518032        -2.048969
 H         1.657207         1.270190        -1.640364
 H         4.350652         0.578342        -1.241431
 H         3.248418         2.217384         1.442848
