19
Iteration:  4451
 C         4.487982        -1.742938         0.776870
 C         3.325765        -0.838739         0.466047
 O         2.001950        -1.403878         0.222370
 C         1.460437        -0.073642         0.140581
 C        -0.097913        -0.031140         0.270118
 C         2.086774         0.468158        -1.177895
 C         3.366319         0.329787        -0.402659
 C         2.682074         0.467750         0.900152
 O         2.865946         1.429005         1.923200
 H         4.813108        -2.352797        -0.040478
 H         5.255065        -1.231088         1.450712
 H         3.953330        -2.465454         1.496287
 H        -0.351767        -0.959698        -0.265152
 H        -0.611714         0.077954         1.235294
 H        -0.551132         0.745922        -0.231256
 H         2.090475        -0.268498        -2.043926
 H         1.800284         1.495677        -1.378038
 H         4.333495         0.876238        -0.588708
 H         2.416609         1.178634         2.787805
