19
Iteration:  3068charge 0 multiplicity 1
 C         4.383335        -1.798230         0.919111
 C         3.262801        -0.845520         0.553093
 O         1.987752        -1.401207         0.603748
 C         1.411181        -0.082585         0.178039
 C        -0.097233         0.137028         0.237886
 C         1.985351         0.115688        -1.206462
 C         3.374735         0.272697        -0.682510
 C         2.825891         0.560520         0.814970
 O         2.962205         1.586963         1.794204
 H         5.307827        -1.549173         0.341071
 H         4.681631        -2.017754         1.941379
 H         3.976975        -2.723965         0.430592
 H        -0.546868         0.560060         1.141500
 H        -0.309515         0.854518        -0.535080
 H        -0.544496        -0.816853        -0.045876
 H         1.675722        -0.707835        -1.852279
 H         1.481652         0.962703        -1.706883
 H         4.259280         0.646231        -1.086979
 H         3.833596         1.956460         1.684650
