19
Iteration:  2482
 C         4.233854        -1.922055         1.087165
 C         3.278813        -0.839202         0.546292
 O         2.060025        -1.480739         0.300585
 C         1.450446        -0.117312         0.246882
 C         0.058223         0.038322         0.690886
 C         1.936272         0.339868        -1.276643
 C         3.388334         0.257280        -0.605724
 C         2.784027         0.600587         0.691298
 O         2.983200         1.700309         1.418564
 H         3.645773        -2.678591         1.506153
 H         4.726898        -2.382814         0.207022
 H         4.854687        -1.472589         1.785759
 H        -0.151535        -0.001864         1.844062
 H        -0.641778         0.913129         0.602224
 H        -0.650653        -0.747869         0.227030
 H         1.593542        -0.143689        -2.197198
 H         1.709707         1.447058        -1.230843
 H         4.460193         0.425432        -0.753573
 H         2.980246         1.294602         2.351480
