19
Iteration:  2983
 C         4.270342        -1.676240         1.384463
 C         3.293945        -0.913133         0.474724
 O         2.042477        -1.495431         0.280227
 C         1.436974        -0.191281         0.087094
 C         0.093044         0.194391         0.723338
 C         1.915850         0.274197        -1.305770
 C         3.290320         0.313695        -0.815902
 C         2.869471         0.474844         0.623657
 O         2.981733         1.476774         1.608656
 H         4.593152        -0.947273         2.065370
 H         3.662769        -2.416111         1.865820
 H         5.089204        -2.187568         0.981746
 H        -0.048075        -0.424411         1.709714
 H         0.182863         1.230131         1.120051
 H        -0.815220         0.078250         0.108250
 H         1.484486        -0.367956        -2.065940
 H         1.559094         1.297209        -1.445661
 H         4.171523         0.515954        -1.361227
 H         2.472746         2.238201         1.154874
