19
Iteration:  1559
 C         4.388264        -1.709703         0.929326
 C         3.340570        -0.762657         0.334403
 O         2.146466        -1.472407         0.111928
 C         1.458589        -0.085066         0.064046
 C        -0.077581         0.066201         0.340859
 C         2.047609         0.383538        -1.212546
 C         3.355773         0.541294        -0.433537
 C         2.739613         0.509654         0.928007
 O         2.697650         1.188787         2.069584
 H         4.547987        -1.590675         2.032788
 H         3.965409        -2.742957         0.773147
 H         5.391380        -1.738028         0.472456
 H        -0.428039        -0.571268         1.194946
 H        -0.415606         1.144583         0.315001
 H        -0.361936        -0.351090        -0.646484
 H         2.059839        -0.366308        -2.002395
 H         1.638538         1.329853        -1.646247
 H         4.311092         0.976826        -0.845187
 H         3.514860         1.569088         2.473955
