19
Iteration:  1368charge 0 multiplicity 1
 C         4.391792        -1.686237         1.020878
 C         3.294693        -0.841434         0.410014
 O         2.075568        -1.460245        -0.007557
 C         1.416523        -0.087652         0.050215
 C        -0.035435        -0.132582         0.294632
 C         2.123625         0.657110        -1.236908
 C         3.402510         0.595156        -0.393262
 C         2.664572         0.395526         0.902338
 O         2.790818         1.143172         2.085013
 H         4.720144        -2.592130         0.428570
 H         5.349829        -1.255858         1.175971
 H         4.098290        -2.056641         2.001359
 H        -0.325228        -1.119100         0.595086
 H        -0.205732         0.601251         1.085521
 H        -0.535051         0.282803        -0.550356
 H         2.076470         0.066108        -2.210427
 H         1.633444         1.607921        -1.408456
 H         4.407347         1.110027        -0.405546
 H         2.585634         2.063467         1.901956
