19
Iteration:  1180
 C         4.368955        -1.606471         1.110521
 C         3.275840        -0.899313         0.375922
 O         2.033825        -1.396047        -0.165226
 C         1.434669        -0.105017        -0.030539
 C        -0.071325        -0.225680         0.285915
 C         2.144419         0.807788        -1.186488
 C         3.448196         0.646477        -0.340054
 C         2.659421         0.357562         0.906696
 O         2.809174         0.985647         2.142368
 H         4.003543        -1.740311         2.182078
 H         4.467947        -2.644203         0.613629
 H         5.376723        -1.105278         1.176823
 H        -0.241673         0.182246         1.296540
 H        -0.743179         0.410051        -0.353404
 H        -0.414185        -1.263810         0.139394
 H         2.118312         0.601363        -2.287674
 H         1.899437         1.916371        -0.954876
 H         4.404858         1.119540        -0.475893
 H         3.282014         1.814127         1.986828
