19
Iteration:  1808
 C         4.318924        -1.680558         1.068752
 C         3.249283        -0.852463         0.491784
 O         2.054318        -1.484145         0.197691
 C         1.443981        -0.176965         0.076259
 C        -0.041905        -0.027130         0.415696
 C         1.942558         0.485731        -1.251139
 C         3.417901         0.440831        -0.598492
 C         2.754114         0.506305         0.810022
 O         2.911704         1.373393         1.909308
 H         5.304644        -1.190551         0.924475
 H         4.148703        -1.981131         2.170696
 H         4.554121        -2.572025         0.449291
 H        -0.355074        -1.111653         0.316668
 H        -0.193786         0.093500         1.534622
 H        -0.659340         0.567898        -0.316872
 H         1.736841        -0.138454        -2.175033
 H         1.620012         1.572343        -1.299474
 H         4.304958         0.877002        -0.966467
 H         3.829018         1.748438         1.924184
