19
Iteration:  4493
 C         4.192467        -1.815156         1.056001
 C         3.226086        -0.800176         0.486518
 O         2.097351        -1.413324         0.013032
 C         1.448399        -0.058589        -0.028992
 C         0.130477        -0.239549         0.562370
 C         2.097058         0.610511        -1.314767
 C         3.446999         0.479516        -0.481936
 C         2.655293         0.497159         0.868225
 O         2.790168         1.409035         1.921203
 H         4.115604        -2.744934         0.569511
 H         5.292912        -1.463700         1.026609
 H         3.925267        -2.244582         2.017573
 H        -0.410168        -1.048416         0.075459
 H         0.136433        -0.180797         1.608181
 H        -0.403375         0.631612         0.174201
 H         1.923568        -0.040943        -2.268896
 H         1.784640         1.654097        -1.426033
 H         4.460779         0.943327        -0.633804
 H         3.376879         0.932326         2.558467
