19
Iteration:  2355charge 0 multiplicity 1
 C         4.360840        -1.622648         1.043056
 C         3.214901        -0.810899         0.517580
 O         1.893923        -1.450884         0.460671
 C         1.367829        -0.009468         0.089781
 C        -0.089165         0.063896         0.481032
 C         2.028640         0.233562        -1.417611
 C         3.279782         0.128040        -0.654456
 C         2.710338         0.590424         0.772869
 O         3.225886         1.499313         1.786359
 H         4.390527        -1.833738         2.190676
 H         4.301295        -2.546674         0.371884
 H         5.420351        -1.294737         0.714471
 H        -0.137691        -0.654344         1.293568
 H        -0.396695         1.001894         0.901896
 H        -0.934464        -0.165770        -0.195102
 H         1.842954        -0.527472        -2.215337
 H         1.867960         1.302061        -1.779943
 H         4.188059         0.652603        -0.994233
 H         3.829223         0.868620         2.203862
