19
Iteration:  2936charge 0 multiplicity 1
 C         4.364170        -1.558513         1.125269
 C         3.238560        -0.819831         0.392893
 O         1.901096        -1.413323         0.392617
 C         1.360625        -0.069621         0.149808
 C        -0.174152         0.053038         0.650524
 C         2.003679         0.139548        -1.368043
 C         3.424368         0.158560        -0.620468
 C         2.779820         0.568838         0.746902
 O         3.105670         1.534134         1.638432
 H         4.746781        -0.927741         1.950086
 H         4.027584        -2.489384         1.517994
 H         5.208795        -1.861198         0.472822
 H        -0.184851        -0.396244         1.656538
 H        -0.541284         1.110090         0.721223
 H        -0.738826        -0.580367        -0.088844
 H         1.855637        -0.680240        -2.057168
 H         1.845620         1.110434        -1.883364
 H         4.442292         0.317768        -1.131171
 H         4.027695         1.252534         1.846923
