19
Iteration:   419charge 0 multiplicity 1
 C         4.432811        -1.666169         0.704450
 C         3.220647        -0.876875         0.406782
 O         1.989024        -1.360616        -0.223358
 C         1.469437         0.049621        -0.020804
 C         0.035001         0.031194         0.282916
 C         2.339217         0.838357        -1.161766
 C         3.522772         0.510428        -0.166769
 C         2.625053         0.284151         1.011728
 O         2.521268         0.801289         2.308015
 H         4.373625        -2.408236         1.517149
 H         4.762836        -2.361446        -0.069870
 H         5.263717        -0.900685         0.978328
 H        -0.584434         0.884032        -0.033298
 H        -0.554675        -0.778039        -0.188455
 H        -0.194135        -0.059817         1.370275
 H         2.282874         0.335788        -2.048344
 H         2.181480         1.965228        -1.240478
 H         4.474068         0.940403        -0.165488
 H         2.844751         1.708904         2.276725
