19
Iteration:   201charge 0 multiplicity 1
 C         4.338359        -1.748254         0.833946
 C         3.224470        -0.908409         0.445384
 O         2.051326        -1.381067        -0.296392
 C         1.416857        -0.019187        -0.141045
 C         0.011019        -0.028532         0.234146
 C         2.274330         0.942368        -1.067999
 C         3.507258         0.548914        -0.182929
 C         2.663940         0.269644         1.024710
 O         2.687830         0.991535         2.222552
 H         4.063371        -2.514855         1.594526
 H         4.792962        -2.249462        -0.032475
 H         5.206319        -1.185421         1.235041
 H        -0.639527         0.898204         0.122114
 H        -0.536349        -0.808962        -0.305289
 H        -0.220949        -0.422632         1.242207
 H         2.280029         0.834238        -2.216285
 H         2.070039         1.979594        -0.808512
 H         4.511239         1.007777         0.127424
 H         2.177067         0.452803         2.885078
