19
Iteration:   702
 C         4.379906        -1.773222         0.757346
 C         3.299304        -0.916129         0.443053
 O         2.040782        -1.372572        -0.160882
 C         1.441351        -0.032685         0.050131
 C        -0.020483        -0.252324         0.236658
 C         2.259298         0.851938        -1.161841
 C         3.440798         0.591026        -0.208195
 C         2.667424         0.336428         1.055359
 O         2.701637         1.171719         2.156284
 H         4.099934        -2.561418         1.446782
 H         4.737255        -2.093241        -0.168324
 H         4.917959        -1.020887         1.357487
 H        -0.584131         0.405200        -0.384673
 H        -0.086920        -1.308119         0.094617
 H        -0.311950         0.023351         1.210346
 H         2.228730         0.446348        -2.136152
 H         2.069510         1.876279        -1.109733
 H         4.444997         1.012243        -0.272020
 H         1.763286         1.213608         2.393044
