19
Iteration:  1766
 C         4.462723        -1.513216         0.929303
 C         3.228931        -0.830282         0.470417
 O         1.960227        -1.478078         0.200406
 C         1.383841         0.011701         0.099194
 C        -0.106116        -0.042633         0.365954
 C         2.085833         0.313476        -1.262225
 C         3.404670         0.283423        -0.568278
 C         2.784888         0.547633         0.790045
 O         2.867473         1.298291         2.074931
 H         5.338092        -1.393784         0.184278
 H         4.769238        -1.086593         1.922089
 H         4.285427        -2.622648         1.065145
 H        -0.765637        -0.531663        -0.387040
 H        -0.398281        -0.457711         1.354710
 H        -0.507344         1.007493         0.475474
 H         2.038617        -0.494292        -2.072299
 H         1.713553         1.322067        -1.637467
 H         4.374046         0.584866        -0.838416
 H         3.732501         1.747457         2.069393
