19
Iteration:  3198charge 0 multiplicity 1
 C         4.378957        -1.585582         1.132990
 C         3.153130        -0.891062         0.526803
 O         1.968687        -1.546559         0.415388
 C         1.425463        -0.048076         0.081205
 C         0.118184         0.350905         0.521112
 C         1.964698         0.109099        -1.413087
 C         3.353113         0.209811        -0.651891
 C         2.756366         0.513269         0.737537
 O         2.898034         1.399605         1.758812
 H         4.919375        -0.782697         1.714338
 H         4.142052        -2.520366         1.670336
 H         5.203899        -1.805411         0.382912
 H        -0.268880        -0.416200         1.201638
 H         0.163817         1.295379         0.995961
 H        -0.626546         0.432370        -0.254283
 H         1.837382        -0.808110        -1.987059
 H         1.719773         1.082536        -1.874530
 H         4.332339         0.408910        -1.141241
 H         3.667953         1.999088         1.719323
