19
Iteration:   112
 C         4.359876        -1.697897         0.746677
 C         3.151907        -0.944491         0.449803
 O         1.988760        -1.405413        -0.137475
 C         1.434631        -0.028248        -0.070555
 C        -0.116780         0.016206         0.049873
 C         2.307475         0.852445        -1.045902
 C         3.510296         0.646276        -0.183720
 C         2.637087         0.340166         1.013524
 O         2.840720         0.888916         2.277187
 H         4.237118        -2.462352         1.564393
 H         4.964322        -2.067842        -0.093341
 H         4.948986        -0.908847         1.078741
 H        -0.462800         1.048804        -0.212459
 H        -0.491259        -0.753278        -0.608303
 H        -0.359153        -0.281576         1.044636
 H         2.444970         0.487841        -2.048330
 H         1.996494         1.828298        -1.021662
 H         4.503880         1.121818        -0.021308
 H         2.296061         0.469562         2.994193
