19
Iteration:  4533
 C         4.303122        -1.616495         1.165189
 C         3.314273        -0.863285         0.368924
 O         2.058608        -1.485163         0.020737
 C         1.468324        -0.110559         0.048356
 C         0.063007        -0.012640         0.503214
 C         2.055898         0.581040        -1.291366
 C         3.430255         0.494468        -0.547907
 C         2.695113         0.458572         0.814443
 O         2.772286         1.194057         1.961236
 H         4.400141        -2.668936         0.790269
 H         5.256038        -1.220714         0.783469
 H         4.160227        -1.449663         2.253482
 H        -0.725078        -0.325386        -0.221054
 H        -0.111591        -0.632275         1.407329
 H        -0.039451         1.142297         0.730896
 H         1.855883         0.026644        -2.180087
 H         1.781786         1.615641        -1.509970
 H         4.397657         0.802765        -0.796241
 H         2.538370         0.633352         2.716974
