19
Iteration:  2771charge 0 multiplicity 1
 C         4.372911        -1.544822         1.183657
 C         3.315383        -0.814835         0.424028
 O         1.983020        -1.477034         0.379903
 C         1.394347        -0.215711         0.182828
 C        -0.066033         0.132859         0.611616
 C         1.932741         0.196022        -1.294058
 C         3.291144         0.307228        -0.733701
 C         2.802573         0.566965         0.611988
 O         3.069734         1.445800         1.674434
 H         5.302498        -1.514734         0.629629
 H         4.560853        -1.300122         2.188765
 H         4.117891        -2.601051         1.252982
 H        -0.393216        -0.491418         1.484803
 H         0.004199         1.233658         0.929115
 H        -0.639644        -0.080387        -0.353604
 H         1.757380        -0.475325        -2.157783
 H         1.667513         1.217575        -1.541069
 H         4.213450         0.379806        -1.237303
 H         2.820435         1.045952         2.518532
