19
Iteration:   925
 C         4.580911        -1.504747         0.841904
 C         3.288359        -0.861115         0.483452
 O         2.008749        -1.499513        -0.065181
 C         1.482468        -0.111761         0.003884
 C        -0.004092         0.027048         0.237597
 C         2.166922         0.608358        -1.181872
 C         3.451330         0.400219        -0.320845
 C         2.558453         0.338163         1.019420
 O         2.589548         1.094145         2.163844
 H         4.595462        -2.177449         1.692332
 H         4.945182        -2.128677        -0.032704
 H         5.330633        -0.763454         1.073843
 H        -0.311789        -0.896263         0.710366
 H        -0.090540         0.768994         1.041261
 H        -0.559294         0.550316        -0.553869
 H         1.994167         0.132426        -2.170677
 H         2.014386         1.754188        -1.248830
 H         4.395578         0.916646        -0.451097
 H         2.576312         1.997036         1.791833
