19
Iteration:  1710
 C         4.449682        -1.673193         0.998906
 C         3.319082        -0.845579         0.495322
 O         2.012182        -1.522352         0.147936
 C         1.448433        -0.145882         0.058023
 C         0.001790         0.051714         0.527925
 C         2.064599         0.443676        -1.211563
 C         3.440136         0.410462        -0.555623
 C         2.711707         0.469158         0.798686
 O         2.737673         1.368059         1.882014
 H         4.563631        -2.549342         0.317874
 H         5.473771        -1.071568         0.979750
 H         4.393031        -2.097555         2.041350
 H        -0.656866         0.114981        -0.372470
 H        -0.242304        -0.867994         1.158713
 H        -0.047414         1.071198         1.007366
 H         2.084984        -0.191381        -2.147243
 H         1.637384         1.519220        -1.264935
 H         4.450878         0.584537        -0.888127
 H         1.886888         1.870362         1.775607
