19
Iteration:  1633charge 0 multiplicity 1
 C         4.439553        -1.678257         1.012644
 C         3.349750        -0.843634         0.485942
 O         2.090831        -1.512464         0.090787
 C         1.457097        -0.174812         0.077125
 C        -0.066865         0.035090         0.272614
 C         1.967802         0.467085        -1.211593
 C         3.322553         0.454853        -0.447816
 C         2.650627         0.454768         0.902143
 O         2.920492         1.407815         1.923933
 H         3.889446        -2.440334         1.555997
 H         5.117376        -2.352204         0.348840
 H         5.019215        -1.075994         1.749300
 H        -0.420937        -0.976141         0.132400
 H        -0.034693         0.375001         1.318863
 H        -0.534989         0.773849        -0.408546
 H         1.585388        -0.128148        -2.080334
 H         1.707812         1.562036        -1.338551
 H         4.260448         0.868833        -0.878559
 H         2.557032         0.931064         2.695914
