19
Iteration:  3832
 C         4.308284        -1.790016         1.058051
 C         3.213900        -0.867262         0.301389
 O         2.036200        -1.420487        -0.063840
 C         1.407235        -0.084397        -0.039191
 C        -0.146590        -0.212738         0.340997
 C         2.115823         0.743194        -1.144991
 C         3.458315         0.452818        -0.421809
 C         2.769709         0.476594         0.981199
 O         2.933552         1.243546         2.111617
 H         3.806121        -2.207178         1.884238
 H         4.665419        -2.555671         0.351183
 H         5.026302        -1.018613         1.347657
 H        -0.702249         0.475796        -0.417753
 H        -0.278391        -1.297151         0.129036
 H        -0.391172         0.132920         1.326563
 H         2.156838         0.443490        -2.190061
 H         1.742995         1.792032        -1.020808
 H         4.425399         0.747592        -0.634947
 H         3.281305         2.135346         1.979154
