19
Iteration:  1148charge 0 multiplicity 1
 C         4.443767        -1.651414         0.969008
 C         3.301511        -0.861669         0.384511
 O         2.139089        -1.459271        -0.123611
 C         1.540823        -0.134621         0.080730
 C        -0.014866         0.025473         0.253714
 C         2.029655         0.711299        -1.092042
 C         3.461677         0.519701        -0.380768
 C         2.674033         0.347272         0.950170
 O         2.594136         1.052739         2.125038
 H         4.027943        -2.425788         1.654010
 H         4.888121        -2.278828         0.219796
 H         5.278982        -1.202122         1.487792
 H        -0.341855         0.417852         1.241007
 H        -0.333763         0.737844        -0.557183
 H        -0.511817        -0.965634         0.134013
 H         1.759649         0.553969        -2.154185
 H         1.831681         1.751524        -0.848123
 H         4.441762         0.888729        -0.651503
 H         2.753280         1.981203         1.895758
