19
Iteration:  3997charge 0 multiplicity 1
 C         4.200797        -1.790243         1.159208
 C         3.325859        -0.807424         0.340088
 O         1.982228        -1.454064         0.002404
 C         1.418637        -0.126967         0.072611
 C         0.030068        -0.178800         0.565764
 C         2.212082         0.696039        -1.405152
 C         3.404518         0.513788        -0.525035
 C         2.734532         0.478712         0.836786
 O         2.828958         1.250435         2.024605
 H         3.839002        -2.830630         1.366121
 H         5.084386        -1.960264         0.568075
 H         4.524924        -1.324149         2.107794
 H        -0.004320         0.381574         1.571757
 H        -0.808124         0.212777        -0.139963
 H        -0.214459        -1.263477         0.884468
 H         1.965787         0.050044        -2.207965
 H         2.008250         1.772325        -1.602988
 H         4.346236         1.060908        -0.890471
 H         3.126861         2.175756         1.800969
