19
Iteration:  4700charge 0 multiplicity 1
 C         4.342743        -1.701697         1.054071
 C         3.305400        -0.853786         0.376420
 O         2.017202        -1.485803         0.004572
 C         1.442248        -0.048548        -0.006311
 C         0.047133        -0.025323         0.464669
 C         2.117891         0.707045        -1.233314
 C         3.464748         0.534698        -0.461418
 C         2.644712         0.356441         0.895460
 O         2.753758         1.199212         1.961248
 H         4.981404        -2.179178         0.311422
 H         5.146266        -1.024909         1.520146
 H         3.921107        -2.494098         1.654009
 H        -0.472949        -0.998403         0.230939
 H         0.088243        -0.075220         1.539784
 H        -0.607858         0.748657         0.012962
 H         2.166810         0.137034        -2.154792
 H         1.697654         1.620633        -1.502056
 H         4.375090         1.085031        -0.488589
 H         2.753926         0.582904         2.765347
