19
Iteration:  4263
 C         4.502907        -1.714680         0.863134
 C         3.282722        -0.860441         0.542114
 O         1.937033        -1.471289         0.309910
 C         1.487363        -0.103802         0.023982
 C        -0.067262         0.070511         0.238635
 C         2.036052         0.385847        -1.307892
 C         3.406747         0.508701        -0.516167
 C         2.719395         0.467498         0.875801
 O         2.883057         1.285402         2.089855
 H         4.242087        -2.737957         0.574186
 H         5.448239        -1.344298         0.328127
 H         4.800033        -1.725351         1.902123
 H        -0.419739        -0.885409        -0.194283
 H        -0.380016         0.201754         1.251903
 H        -0.485327         1.021810        -0.241133
 H         1.976728        -0.214932        -2.245082
 H         1.509923         1.307919        -1.383288
 H         4.472066         0.880025        -0.737596
 H         2.069499         1.864714         2.154664
