19
Iteration:  2001
 C         4.229504        -1.731022         1.072537
 C         3.245389        -0.820832         0.481198
 O         2.039066        -1.488237         0.231545
 C         1.386865        -0.121402         0.076171
 C        -0.064437        -0.084971         0.521095
 C         2.016068         0.483975        -1.248805
 C         3.365828         0.401363        -0.640670
 C         2.807898         0.555239         0.755761
 O         3.066519         1.349953         1.862060
 H         4.202353        -2.710685         0.584770
 H         5.316092        -1.352719         1.322343
 H         3.831513        -1.931299         2.126362
 H        -0.079773         0.071573         1.577779
 H        -0.449128         0.774767        -0.066876
 H        -0.704977        -0.927227         0.242721
 H         1.992606        -0.095899        -2.226604
 H         1.662453         1.531968        -1.342157
 H         4.282517         0.818556        -1.072633
 H         3.185818         2.283025         1.576516
