19
Iteration:  1530charge 0 multiplicity 1
 C         4.445403        -1.807572         1.012458
 C         3.314227        -0.824487         0.452028
 O         2.094017        -1.500353         0.025174
 C         1.484268        -0.195755        -0.024953
 C         0.065239         0.044355         0.465002
 C         2.045515         0.587876        -1.166888
 C         3.432890         0.532792        -0.466503
 C         2.690850         0.452758         0.873218
 O         2.570432         1.240114         1.971031
 H         4.786003        -1.472505         2.013782
 H         4.119881        -2.790311         0.959480
 H         5.272514        -1.745343         0.300940
 H        -0.036350         0.129579         1.542710
 H        -0.321960         0.928682        -0.029220
 H        -0.553076        -0.702588         0.003868
 H         1.853762         0.228794        -2.191626
 H         1.692346         1.600032        -1.119730
 H         4.360756         0.986771        -0.803134
 H         3.213819         1.952430         2.076958
