19
Iteration:    55
 C         4.354235        -1.883272         0.735826
 C         3.300508        -0.847118         0.420673
 O         2.073837        -1.420200        -0.140600
 C         1.509667        -0.072954        -0.049641
 C         0.092689         0.039175         0.338826
 C         2.283383         0.830484        -1.107937
 C         3.544292         0.690715        -0.172340
 C         2.671937         0.381828         0.943950
 O         2.424644         1.024843         2.131608
 H         3.884980        -2.683154         1.286889
 H         4.381735        -2.358070        -0.246554
 H         5.311538        -1.731022         1.189419
 H        -0.066344         0.643688         1.151503
 H        -0.587335         0.492015        -0.353875
 H        -0.349640        -0.878917         0.655827
 H         2.358416         0.570847        -2.049037
 H         1.866688         1.870231        -1.112449
 H         4.598932         0.722690        -0.178241
 H         2.306732         0.454571         2.910187
