19
Iteration:  3904charge 0 multiplicity 1
 C         4.453011        -1.635731         0.723601
 C         3.251479        -0.805283         0.516511
 O         1.997329        -1.366885         0.247166
 C         1.474136        -0.097457         0.054247
 C        -0.057828         0.065723         0.110880
 C         2.090653         0.376397        -1.284140
 C         3.397520         0.447678        -0.417652
 C         2.713156         0.518725         0.949769
 O         2.804553         1.098744         2.257185
 H         4.693632        -1.946797         1.767103
 H         4.243828        -2.553657         0.085480
 H         5.284812        -1.082563         0.272998
 H        -0.328726         0.996164         0.551235
 H        -0.513198        -0.026556        -0.843006
 H        -0.487670        -0.672423         0.802494
 H         2.051489        -0.344196        -2.141130
 H         2.039836         1.393027        -1.590323
 H         4.473207         0.490075        -0.680347
 H         2.611038         2.033573         2.316086
