19
Iteration:  2908charge 0 multiplicity 1
 C         4.476507        -1.633309         0.937854
 C         3.180791        -0.871820         0.631699
 O         1.893246        -1.413810         0.522674
 C         1.404318        -0.100935         0.105519
 C         0.006212         0.095558         0.385177
 C         1.881743         0.116735        -1.239903
 C         3.312995         0.226310        -0.596519
 C         2.765733         0.550536         0.790591
 O         3.143507         1.568679         1.601293
 H         5.089131        -1.017474         1.607273
 H         4.330520        -2.647107         1.384322
 H         5.034588        -1.796541         0.010944
 H        -0.132200         0.244727         1.478643
 H        -0.337750         1.042920         0.027171
 H        -0.508995        -0.757768        -0.022629
 H         1.714865        -0.520952        -2.131408
 H         1.499616         1.117726        -1.484711
 H         4.197755         0.564681        -1.053572
 H         2.953799         1.144712         2.458448
