19
Iteration:  3156
 C         4.188021        -1.564624         1.300664
 C         3.223036        -0.900521         0.442764
 O         2.038039        -1.500655         0.279134
 C         1.469021        -0.027067         0.079215
 C         0.097133         0.186324         0.668115
 C         1.973459         0.249493        -1.308044
 C         3.380790         0.195010        -0.715455
 C         2.820067         0.517648         0.601404
 O         2.944959         1.356040         1.719329
 H         5.168286        -1.017175         1.524322
 H         3.635794        -1.735344         2.285553
 H         4.333874        -2.586656         0.823733
 H         0.053207        -0.154541         1.736183
 H        -0.273972         1.193803         0.529626
 H        -0.624773        -0.419161         0.137885
 H         1.707710        -0.537211        -2.040938
 H         1.678783         1.325988        -1.578667
 H         4.351578         0.592247        -1.167735
 H         3.195717         2.211461         1.370268
