19
Iteration:  3902charge 0 multiplicity 1
 C         4.448463        -1.636320         0.716787
 C         3.253447        -0.793067         0.509674
 O         1.990362        -1.368741         0.248078
 C         1.448907        -0.110357         0.043189
 C        -0.057885         0.065188         0.098758
 C         2.091891         0.377431        -1.264423
 C         3.398572         0.450884        -0.419741
 C         2.737270         0.518055         0.948382
 O         2.810634         1.103925         2.275667
 H         4.757095        -1.979737         1.755673
 H         4.240082        -2.515903         0.134326
 H         5.288547        -1.094286         0.284850
 H        -0.309282         0.968203         0.478605
 H        -0.562758        -0.074846        -0.829835
 H        -0.537899        -0.647994         0.798598
 H         2.098313        -0.354794        -2.091895
 H         2.009669         1.400061        -1.619142
 H         4.513611         0.461773        -0.721930
 H         2.602349         2.050417         2.288835
