19
Iteration:   878charge 0 multiplicity 1
 C         4.449948        -1.799843         0.745715
 C         3.347799        -0.788457         0.463021
 O         2.099454        -1.408944         0.032443
 C         1.461811        -0.123799         0.028765
 C         0.030783        -0.149112         0.250678
 C         2.172401         0.662714        -1.134982
 C         3.417109         0.585230        -0.284536
 C         2.653223         0.408225         0.980389
 O         2.486945         1.247978         2.105633
 H         3.831818        -2.759661         1.065958
 H         4.992162        -2.071775        -0.131938
 H         5.212057        -1.575829         1.529209
 H        -0.160539        -0.785478         1.073470
 H        -0.351118         0.822381         0.427565
 H        -0.370423        -0.506393        -0.684330
 H         2.365977         0.068576        -2.145379
 H         1.655097         1.616166        -1.326336
 H         4.431827         1.123510        -0.548374
 H         3.368157         1.548754         2.377974
