19
Iteration:   374charge 0 multiplicity 1
 C         4.173059        -1.902161         0.875891
 C         3.391113        -0.689328         0.344657
 O         2.202382        -1.298457        -0.204206
 C         1.470699         0.020876         0.078928
 C        -0.009618        -0.076710         0.080622
 C         2.103633         0.811891        -1.093389
 C         3.435405         0.659323        -0.321622
 C         2.696011         0.409856         1.016023
 O         2.777205         0.790520         2.363351
 H         3.411271        -2.626827         1.268884
 H         4.526598        -2.527366         0.047397
 H         5.043284        -1.666500         1.533032
 H        -0.547045         0.743821        -0.417629
 H        -0.390082        -0.847067        -0.598335
 H        -0.447350        -0.140096         1.080257
 H         2.127370         0.388384        -1.986530
 H         1.731951         1.887832        -1.030567
 H         4.426911         1.127683        -0.399211
 H         2.101276         1.419344         2.615669
