19
Iteration:  4234charge 0 multiplicity 1
 C         4.469197        -1.599847         0.776013
 C         3.257456        -0.817316         0.458480
 O         2.053030        -1.415296         0.316484
 C         1.418388        -0.067779         0.155732
 C        -0.120281         0.137380         0.202767
 C         2.097746         0.267977        -1.234896
 C         3.428258         0.395907        -0.465187
 C         2.691244         0.499682         0.868033
 O         2.869695         1.175644         2.106254
 H         4.454259        -2.486657         0.175683
 H         5.352321        -0.979934         0.527393
 H         4.427508        -1.993623         1.811363
 H        -0.655301        -0.867058         0.030079
 H        -0.587657         0.810438         1.006975
 H        -0.349658         0.645081        -0.743184
 H         2.056609        -0.454032        -2.068689
 H         1.642385         1.278197        -1.480899
 H         4.435651         0.545031        -0.799859
 H         2.328645         1.981042         2.093540
