19
Iteration:   638
 C         4.393762        -1.751497         0.756704
 C         3.338586        -0.796943         0.386147
 O         2.070035        -1.389229        -0.123065
 C         1.501463        -0.055536         0.017041
 C         0.026294        -0.041890         0.219046
 C         2.176162         0.690396        -1.171281
 C         3.471838         0.596118        -0.271196
 C         2.644026         0.468694         1.023644
 O         2.490123         0.961452         2.281969
 H         4.157601        -2.418956         1.571573
 H         4.846529        -2.214580        -0.073496
 H         5.307862        -1.313579         1.200430
 H        -0.581230        -0.084137        -0.717714
 H        -0.248326        -0.886483         0.861331
 H        -0.349607         0.936663         0.703048
 H         2.136606         0.008312        -1.999462
 H         1.988457         1.817773        -1.368847
 H         4.497371         1.020733        -0.413211
 H         3.409213         1.103460         2.603436
