19
Iteration:  1030charge 0 multiplicity 1
 C         4.427807        -1.612886         1.045519
 C         3.273008        -0.858572         0.434727
 O         2.101025        -1.465889        -0.153908
 C         1.418727        -0.119736        -0.040981
 C        -0.048539        -0.141035         0.214457
 C         2.109301         0.796180        -1.071597
 C         3.369215         0.494007        -0.302442
 C         2.604896         0.300978         0.968826
 O         2.812272         1.130659         2.078929
 H         4.256755        -2.100616         2.026264
 H         4.731517        -2.380720         0.438815
 H         5.304732        -1.019071         1.183517
 H        -0.447614        -0.958589         0.758970
 H        -0.201397         0.803020         0.734457
 H        -0.458065        -0.160105        -0.772538
 H         1.942489         0.511637        -2.122572
 H         1.787431         1.755306        -0.904556
 H         4.343014         1.043611        -0.393860
 H         3.039313         1.989576         1.694463
