19
Iteration:  2324charge 0 multiplicity 1
 C         4.204654        -1.776839         1.131855
 C         3.238508        -0.916429         0.430331
 O         1.940342        -1.415487         0.260789
 C         1.467451        -0.082553         0.222163
 C        -0.051886        -0.009218         0.617313
 C         1.961789         0.347399        -1.224775
 C         3.349797         0.257004        -0.608751
 C         2.850120         0.563008         0.724096
 O         3.152639         1.603346         1.552112
 H         3.946692        -2.260229         2.071346
 H         4.622970        -2.558084         0.553483
 H         5.126296        -1.185741         1.321819
 H        -0.237040        -0.473144         1.548211
 H        -0.089996         1.049334         0.828041
 H        -0.802727        -0.355091        -0.086403
 H         1.793472        -0.465975        -1.958909
 H         1.771565         1.349527        -1.632704
 H         4.335483         0.522918        -1.017345
 H         2.575805         1.236115         2.274136
