19
Iteration:  2647charge 0 multiplicity 1
 C         4.287603        -1.726221         1.053673
 C         3.302167        -0.834733         0.544128
 O         1.908184        -1.444258         0.304518
 C         1.394735        -0.042211         0.100701
 C         0.093302        -0.003061         0.829739
 C         2.043654         0.274828        -1.487232
 C         3.381789         0.198600        -0.601433
 C         2.763665         0.476963         0.752201
 O         2.965625         1.654688         1.571536
 H         4.866190        -1.428885         1.934916
 H         3.840659        -2.725231         1.283926
 H         5.101818        -1.796584         0.336408
 H         0.210173         0.180297         1.984741
 H        -0.550018         0.828266         0.453994
 H        -0.405670        -1.015220         0.601812
 H         1.721391        -0.466632        -2.271272
 H         1.786411         1.317513        -1.816724
 H         4.456388         0.409219        -0.835098
 H         2.557069         1.653919         2.423551
