19
Iteration:   426charge 0 multiplicity 1
 C         4.468460        -1.646825         0.691372
 C         3.235631        -0.908695         0.427347
 O         2.042136        -1.370593        -0.254257
 C         1.479392         0.046962        -0.005139
 C        -0.009139         0.074024         0.312671
 C         2.328347         0.836545        -1.123584
 C         3.520592         0.471499        -0.239162
 C         2.571141         0.216041         1.076348
 O         2.488700         0.838651         2.302372
 H         4.264781        -2.244363         1.627794
 H         4.799644        -2.265020        -0.172709
 H         5.194238        -0.899693         0.896771
 H        -0.396734         1.062154        -0.056063
 H        -0.557430        -0.643816        -0.379310
 H        -0.150975        -0.016209         1.361644
 H         2.260259         0.298852        -2.204725
 H         2.159084         1.942883        -1.167046
 H         4.541088         0.981613        -0.182373
 H         3.011976         1.642078         2.259818
