19
Iteration:  2618
 C         4.362164        -1.638645         1.121585
 C         3.316494        -0.872052         0.455439
 O         1.895521        -1.461190         0.355170
 C         1.382672        -0.143950         0.040960
 C         0.059050         0.163208         0.753752
 C         1.954325         0.210153        -1.321191
 C         3.400187         0.300380        -0.686692
 C         2.809506         0.493843         0.681920
 O         2.942073         1.516806         1.611440
 H         4.524063        -1.372145         2.180946
 H         4.052881        -2.639149         1.149564
 H         5.324472        -1.563801         0.563620
 H         0.391057         0.117509         1.793131
 H        -0.256146         1.126418         0.324851
 H        -0.663980        -0.633460         0.545507
 H         1.683309        -0.412088        -2.176922
 H         1.546142         1.196825        -1.429316
 H         4.443557         0.382552        -1.094806
 H         2.905595         1.200314         2.542044
