19
Iteration:  4603charge 0 multiplicity 1
 C         4.473492        -1.675654         0.762044
 C         3.265982        -0.825103         0.549383
 O         2.000836        -1.459686         0.223091
 C         1.451409        -0.189726         0.043106
 C        -0.024629         0.064826         0.156873
 C         2.095043         0.472020        -1.202439
 C         3.334600         0.407317        -0.386216
 C         2.641915         0.507030         0.984231
 O         2.850373         1.332449         2.041783
 H         4.877383        -1.819823        -0.236582
 H         5.316482        -1.010111         1.180284
 H         4.319924        -2.610252         1.343512
 H        -0.663999        -0.193239        -0.747622
 H        -0.428372        -0.689002         0.897818
 H        -0.277779         1.115776         0.480043
 H         2.069963        -0.292229        -2.085579
 H         1.797502         1.397535        -1.696279
 H         4.375130         0.807257        -0.572221
 H         2.903708         0.647050         2.754629
