19
Iteration:  4629
 C         4.346576        -1.832692         0.795973
 C         3.299214        -0.833651         0.492496
 O         2.028317        -1.469465         0.193608
 C         1.450143        -0.114006         0.056008
 C        -0.115152        -0.127788         0.248593
 C         2.168908         0.564853        -1.142087
 C         3.491839         0.556127        -0.400901
 C         2.679881         0.484901         0.966903
 O         2.821012         1.431656         1.934777
 H         5.022278        -1.977522        -0.104866
 H         5.043789        -1.500126         1.520611
 H         3.802113        -2.826095         1.017405
 H        -0.684987        -0.780662        -0.383379
 H        -0.207670        -0.627741         1.233528
 H        -0.604872         0.799617         0.217567
 H         1.959821         0.055601        -2.100422
 H         1.853443         1.629340        -1.413354
 H         4.446815         0.956716        -0.613391
 H         2.692907         0.954621         2.800042
