19
Iteration:  1845charge 0 multiplicity 1
 C         4.360889        -1.847909         0.989499
 C         3.323149        -0.874261         0.462550
 O         2.017825        -1.470300         0.133613
 C         1.447191        -0.109781         0.113807
 C         0.011033        -0.002817         0.566527
 C         2.073194         0.445978        -1.233021
 C         3.414793         0.464876        -0.504352
 C         2.715407         0.480124         0.831524
 O         2.787193         1.434017         1.808068
 H         4.804573        -1.168365         1.803194
 H         3.967706        -2.725866         1.457827
 H         5.136142        -2.115583         0.196161
 H        -0.299630        -1.035934         0.825520
 H        -0.149900         0.667591         1.424999
 H        -0.643900         0.304498        -0.283371
 H         1.707523        -0.245472        -2.064476
 H         1.638162         1.421533        -1.476257
 H         4.410195         0.990880        -0.680392
 H         3.167198         2.252794         1.437157
