19
Iteration:  3057charge 0 multiplicity 1
 C         4.396814        -1.747258         0.874482
 C         3.289443        -0.819917         0.583917
 O         1.972156        -1.372090         0.586527
 C         1.405113        -0.025684         0.194399
 C        -0.076612         0.153587         0.337970
 C         2.029652         0.119851        -1.305244
 C         3.324210         0.210179        -0.553965
 C         2.760208         0.521879         0.804713
 O         2.926289         1.546705         1.672953
 H         5.373882        -1.384495         0.468344
 H         4.502235        -2.001014         1.928550
 H         4.206248        -2.706934         0.338304
 H        -0.386755         0.309954         1.365761
 H        -0.299220         0.947812        -0.369981
 H        -0.619486        -0.705554        -0.056843
 H         2.127238        -0.756311        -1.900716
 H         1.820090         1.107133        -1.746777
 H         4.271591         0.349370        -0.955074
 H         3.842984         1.549258         1.983055
