19
Iteration:  3503charge 0 multiplicity 1
 C         4.319176        -1.797284         0.961558
 C         3.222227        -0.852757         0.451204
 O         1.918886        -1.422333         0.127214
 C         1.406458        -0.078183         0.004203
 C        -0.044878        -0.069832         0.410701
 C         2.131084         0.462268        -1.301024
 C         3.417671         0.415810        -0.498736
 C         2.772276         0.532251         0.884362
 O         2.973449         1.356537         2.052922
 H         3.740616        -2.261042         1.764083
 H         4.920105        -2.282434         0.161459
 H         4.954027        -1.142118         1.583144
 H        -0.675537        -0.545876        -0.315739
 H        -0.082284        -0.546172         1.358627
 H        -0.417794         0.927719         0.681171
 H         1.952548        -0.391159        -1.965530
 H         1.728023         1.425442        -1.616640
 H         4.337188         0.773218        -0.825455
 H         3.344661         2.188907         1.774961
