19
Iteration:  1853
 C         4.388496        -1.799203         0.950867
 C         3.233986        -0.887356         0.514039
 O         1.996999        -1.473523         0.191282
 C         1.490041        -0.019080         0.009548
 C        -0.015267        -0.036921         0.596100
 C         2.094351         0.413348        -1.256816
 C         3.401916         0.467631        -0.523986
 C         2.750416         0.445825         0.860809
 O         2.772410         1.417418         1.821645
 H         4.901197        -1.341233         1.850624
 H         3.908385        -2.738049         1.255197
 H         5.164303        -1.932736         0.158596
 H        -0.292715        -1.039626         1.034203
 H         0.146807         0.703392         1.371425
 H        -0.585483         0.285583        -0.289835
 H         2.008440        -0.107615        -2.208818
 H         1.745488         1.487005        -1.305617
 H         4.432896         0.766108        -0.744632
 H         2.894452         2.243814         1.293601
