19
Iteration:  3507
 C         4.353741        -1.769101         0.963935
 C         3.210179        -0.829587         0.445288
 O         1.899011        -1.429931         0.142092
 C         1.387219        -0.090667         0.013557
 C        -0.022096        -0.036173         0.400613
 C         2.137434         0.447381        -1.310219
 C         3.409467         0.429864        -0.505663
 C         2.750626         0.514715         0.892308
 O         2.973990         1.322835         2.071484
 H         3.814607        -2.319527         1.741911
 H         4.856558        -2.400609         0.203707
 H         5.069807        -1.151017         1.496903
 H        -0.722129        -0.613790        -0.312591
 H        -0.032174        -0.452642         1.460731
 H        -0.309773         1.008495         0.513000
 H         2.006777        -0.393402        -1.991830
 H         1.755099         1.405054        -1.735861
 H         4.402353         0.847032        -0.890759
 H         3.236890         2.227068         1.732403
