19
Iteration:   923charge 0 multiplicity 1
 C         4.593443        -1.507261         0.826226
 C         3.273157        -0.845523         0.499764
 O         2.003479        -1.493038        -0.071999
 C         1.505289        -0.125254        -0.011082
 C        -0.011266         0.031248         0.248713
 C         2.185707         0.623239        -1.162291
 C         3.432395         0.376731        -0.323630
 C         2.551438         0.331803         1.032507
 O         2.583668         1.106277         2.152041
 H         4.587636        -2.262993         1.713241
 H         4.942067        -2.041249        -0.072398
 H         5.316070        -0.712547         1.047283
 H        -0.336967        -0.864842         0.684973
 H        -0.116619         0.712083         1.046076
 H        -0.647786         0.439642        -0.551573
 H         2.011044         0.061853        -2.175621
 H         2.099522         1.743007        -1.255486
 H         4.471575         0.896043        -0.434901
 H         2.671300         2.020633         1.828678
