19
Iteration:  3576charge 0 multiplicity 1
 C         4.590147        -1.566644         0.921540
 C         3.223870        -0.884168         0.446379
 O         1.899692        -1.441497         0.194586
 C         1.466370        -0.009721         0.042267
 C         0.079124         0.256277         0.405649
 C         2.039644         0.437921        -1.265776
 C         3.449158         0.331773        -0.592562
 C         2.691594         0.393222         0.840888
 O         2.712666         0.999644         2.120699
 H         4.892785        -1.100152         1.899613
 H         4.410264        -2.635122         1.032961
 H         5.339928        -1.348321         0.094955
 H        -0.347020        -0.342464         1.193075
 H         0.074249         1.372612         0.607976
 H        -0.637931         0.204476        -0.521399
 H         1.918334        -0.329524        -2.094289
 H         1.875513         1.450017        -1.631797
 H         4.385892         0.759893        -0.817563
 H         2.569531         1.956764         2.048361
