19
Iteration:   643charge 0 multiplicity 1
 C         4.431078        -1.784350         0.777714
 C         3.324473        -0.789683         0.359990
 O         2.097187        -1.415510        -0.138194
 C         1.534735        -0.011461         0.053171
 C         0.010461        -0.023276         0.191990
 C         2.149218         0.703651        -1.124253
 C         3.468498         0.619208        -0.249815
 C         2.642365         0.367251         1.016577
 O         2.485028         1.034186         2.262892
 H         3.951894        -2.510264         1.507303
 H         4.908978        -2.400532        -0.094707
 H         5.268358        -1.191091         1.185046
 H        -0.515291        -0.091948        -0.754930
 H        -0.372487        -0.885571         0.777672
 H        -0.275178         0.765764         0.875040
 H         2.029039         0.081760        -2.084941
 H         1.898893         1.717333        -1.377712
 H         4.415830         1.040122        -0.514546
 H         3.400669         1.039937         2.614068
