19
Iteration:  3505
 C         4.339489        -1.785200         0.964167
 C         3.213877        -0.839365         0.448244
 O         1.906541        -1.426873         0.134645
 C         1.394813        -0.086657         0.008563
 C        -0.032559        -0.051663         0.405477
 C         2.136762         0.455014        -1.308176
 C         3.414036         0.422819        -0.502669
 C         2.762493         0.522926         0.888805
 O         2.973832         1.340317         2.064317
 H         3.776377        -2.263887         1.749952
 H         4.901224        -2.345866         0.168127
 H         5.000139        -1.154711         1.537318
 H        -0.710121        -0.590200        -0.328008
 H        -0.049526        -0.487504         1.415625
 H        -0.353253         0.954046         0.600742
 H         1.975823        -0.390822        -1.955276
 H         1.734770         1.420995        -1.682274
 H         4.367735         0.818333        -0.865783
 H         3.289923         2.210585         1.754459
