19
Iteration:  4647
 C         4.347355        -1.905554         0.862969
 C         3.300954        -0.879489         0.442622
 O         2.044599        -1.325097         0.015038
 C         1.449939        -0.003439         0.113898
 C         0.044151        -0.218563         0.364778
 C         2.088487         0.580899        -1.172009
 C         3.398224         0.454130        -0.364934
 C         2.710127         0.476409         0.972312
 O         2.815813         1.458766         1.918775
 H         5.105917        -2.113314         0.111652
 H         4.829931        -1.727153         1.853933
 H         3.741052        -2.747406         1.229553
 H        -0.223375        -1.117068        -0.289879
 H        -0.337680        -0.527229         1.415821
 H        -0.508284         0.668811        -0.006544
 H         1.977806         0.123124        -2.224973
 H         1.811255         1.650905        -1.326759
 H         4.339884         0.913511        -0.549398
 H         2.198788         1.141625         2.634053
