19
Iteration:  1969
 C         4.407438        -1.616558         1.107598
 C         3.187520        -0.884868         0.503385
 O         1.816016        -1.368500         0.108994
 C         1.364777         0.085546         0.042712
 C        -0.056726        -0.187123         0.483273
 C         2.056334         0.465965        -1.219377
 C         3.392967         0.228934        -0.597156
 C         2.767131         0.463925         0.837652
 O         3.151128         1.292862         1.881849
 H         4.257478        -2.676640         1.217397
 H         5.313725        -1.287033         0.463278
 H         4.273108        -1.082576         2.058529
 H        -0.140287         0.240526         1.474201
 H        -0.621827         0.591236        -0.117225
 H        -0.313702        -1.259724         0.387086
 H         2.001590        -0.249853        -2.092181
 H         1.902297         1.498279        -1.611110
 H         4.169967         0.947652        -0.807499
 H         3.017849         2.253541         1.703117
