19
Iteration:  2146
 C         4.290282        -1.782960         1.146599
 C         3.189678        -0.811640         0.488600
 O         1.869109        -1.397388         0.317091
 C         1.403185        -0.037979         0.103527
 C        -0.023807        -0.098362         0.590978
 C         2.014948         0.349966        -1.292489
 C         3.415180         0.362522        -0.631229
 C         2.730958         0.624734         0.705211
 O         3.191774         1.373259         1.701418
 H         4.686013        -1.027900         1.899678
 H         3.626574        -2.596813         1.586033
 H         5.065626        -2.271685         0.503500
 H         0.018172        -1.008222         1.234455
 H        -0.138713         0.753651         1.242274
 H        -0.853501        -0.074759        -0.116384
 H         1.921194        -0.487343        -2.004953
 H         1.799875         1.369611        -1.778076
 H         4.297101         0.569328        -1.217318
 H         3.129797         2.330608         1.446001
