19
Iteration:  4628
 C         4.351598        -1.824966         0.787736
 C         3.294186        -0.833098         0.495459
 O         2.028551        -1.474268         0.199826
 C         1.446272        -0.115470         0.055646
 C        -0.115676        -0.121824         0.243166
 C         2.172980         0.556472        -1.147177
 C         3.496539         0.561171        -0.400743
 C         2.674550         0.482516         0.967895
 O         2.822945         1.430722         1.938631
 H         5.014348        -1.960595        -0.122093
 H         5.049313        -1.524511         1.537581
 H         3.803927        -2.813762         1.054881
 H        -0.706673        -0.772598        -0.392673
 H        -0.233812        -0.647533         1.248091
 H        -0.575893         0.809281         0.229039
 H         1.944081         0.076558        -2.137713
 H         1.855589         1.634246        -1.411336
 H         4.435584         0.945924        -0.621906
 H         2.714213         0.943720         2.808773
