19
Iteration:   270charge 0 multiplicity 1
 C         4.391691        -1.847311         0.660470
 C         3.366483        -0.771654         0.464051
 O         2.143843        -1.398215        -0.055346
 C         1.535696        -0.144586        -0.045470
 C         0.057773         0.175226         0.198195
 C         2.203425         0.738432        -1.097001
 C         3.499660         0.673955        -0.227564
 C         2.624554         0.419351         0.950223
 O         2.465637         0.786534         2.287657
 H         3.905069        -2.596567         1.303061
 H         4.715698        -2.300748        -0.308778
 H         5.322125        -1.612873         1.317313
 H        -0.097279         0.994162         0.961755
 H        -0.510431         0.463714        -0.801587
 H        -0.707132        -0.676933         0.518617
 H         2.092881         0.437872        -2.243403
 H         1.704364         1.658515        -1.017581
 H         4.388225         1.228985        -0.187574
 H         2.052867         1.694666         2.341664
