19
Iteration:  4484
 C         4.249913        -1.817798         0.971481
 C         3.205730        -0.850293         0.591657
 O         2.039444        -1.415998         0.075730
 C         1.451287        -0.095096        -0.070894
 C         0.086754        -0.200996         0.482008
 C         2.131645         0.600711        -1.239896
 C         3.424197         0.498780        -0.495199
 C         2.736120         0.530104         0.850059
 O         2.794367         1.426343         1.917459
 H         4.196841        -2.596890         0.222045
 H         5.324961        -1.575516         1.172032
 H         3.758143        -2.101182         1.952795
 H        -0.249939        -1.208587         0.191255
 H         0.096988        -0.308666         1.560838
 H        -0.544859         0.514494         0.120687
 H         2.073066         0.151736        -2.289719
 H         1.566051         1.544464        -1.305697
 H         4.471154         0.891865        -0.806579
 H         3.303718         0.992958         2.641391
