19
Iteration:  3852
 C         4.376191        -1.709058         0.891954
 C         3.223076        -0.824251         0.540096
 O         1.976991        -1.391777         0.051919
 C         1.468060        -0.061769         0.047621
 C        -0.057577        -0.149845         0.112157
 C         2.064663         0.656976        -1.123471
 C         3.415227         0.490255        -0.368409
 C         2.626236         0.399740         1.009506
 O         3.008830         1.162507         2.056780
 H         4.193124        -2.084257         1.883339
 H         4.267401        -2.627653         0.219467
 H         5.362338        -1.231394         0.887591
 H        -0.620557         0.658433        -0.575596
 H        -0.386231        -1.198116        -0.168679
 H        -0.470944        -0.009920         1.139646
 H         1.960219         0.110872        -2.082872
 H         1.845719         1.728453        -1.248179
 H         4.297374         1.021532        -0.626401
 H         3.157770         2.112028         1.956040
