19
Iteration:  1263charge 0 multiplicity 1
 C         4.555156        -1.633174         0.812260
 C         3.336051        -0.862263         0.474825
 O         2.033085        -1.492925         0.028324
 C         1.448908        -0.194342         0.112751
 C        -0.005185         0.063476         0.128323
 C         2.092377         0.680167        -1.131507
 C         3.437595         0.483292        -0.338961
 C         2.618648         0.361599         0.962477
 O         2.629377         1.113129         2.139240
 H         4.458002        -1.937091         1.842689
 H         4.787576        -2.425013        -0.004253
 H         5.475100        -0.984165         0.783425
 H        -0.421784        -0.641301         0.905222
 H        -0.175049         1.095365         0.502080
 H        -0.503157        -0.355628        -0.776693
 H         1.946062         0.217893        -2.093375
 H         1.755447         1.746783        -1.065945
 H         4.418090         0.948618        -0.511453
 H         2.617481         2.051509         1.932213
