19
Iteration:   345
 C         4.253257        -1.780908         0.922512
 C         3.269068        -0.874177         0.342787
 O         2.052250        -1.373409        -0.247030
 C         1.429306         0.009444        -0.021705
 C        -0.024499        -0.106599         0.029197
 C         2.173356         0.942136        -1.013853
 C         3.434597         0.653917        -0.221119
 C         2.702452         0.318134         1.025593
 O         2.841649         0.836659         2.313246
 H         3.860936        -2.493554         1.625979
 H         4.854940        -2.288487         0.165502
 H         5.063202        -1.273047         1.561556
 H        -0.504900         0.885874         0.078834
 H        -0.499545        -0.705221        -0.744392
 H        -0.513981        -0.654938         0.892851
 H         2.283616         0.759680        -2.176079
 H         1.778413         1.971833        -0.849921
 H         4.375417         1.076958        -0.134656
 H         2.917488         1.793042         2.187659
