19
Iteration:  1842charge 0 multiplicity 1
 C         4.352376        -1.839967         1.000064
 C         3.344894        -0.875939         0.439957
 O         2.031575        -1.461018         0.116285
 C         1.428926        -0.150906         0.157963
 C         0.032410         0.011724         0.544585
 C         2.046881         0.458214        -1.231419
 C         3.423780         0.449768        -0.488886
 C         2.702497         0.485928         0.809503
 O         2.794522         1.442889         1.813386
 H         4.853863        -1.209653         1.787591
 H         3.954939        -2.729972         1.524913
 H         5.104484        -2.186496         0.251465
 H        -0.314126        -1.039938         0.779169
 H        -0.287008         0.632656         1.397235
 H        -0.704661         0.339085        -0.225764
 H         1.735153        -0.259818        -1.990002
 H         1.633594         1.451397        -1.545492
 H         4.332527         1.011478        -0.702523
 H         3.260271         2.256348         1.492032
