19
Iteration:  4915
 C         4.483565        -1.478297         0.793891
 C         3.220404        -0.850672         0.485662
 O         1.924981        -1.495591         0.116406
 C         1.430883        -0.108494         0.087824
 C        -0.058519         0.158840         0.263490
 C         2.121964         0.447914        -1.270557
 C         3.429310         0.390012        -0.383071
 C         2.717696         0.503694         0.902048
 O         2.848988         1.071894         2.152182
 H         5.180809        -1.415968        -0.032759
 H         5.049836        -0.915020         1.557171
 H         4.552933        -2.495227         0.999760
 H        -0.535657        -0.709720        -0.206113
 H        -0.358983         0.380095         1.240295
 H        -0.328802         0.978171        -0.510580
 H         1.857208        -0.163188        -2.192662
 H         2.047804         1.581135        -1.370248
 H         4.398786         0.850833        -0.563001
 H         2.371215         0.365590         2.667218
