19
Iteration:  3342charge 0 multiplicity 1
 C         4.470596        -1.515497         1.238061
 C         3.250519        -0.917515         0.391514
 O         1.907106        -1.513846         0.254098
 C         1.402728        -0.162126         0.059736
 C        -0.039857         0.255795         0.454802
 C         1.997519         0.363217        -1.298984
 C         3.379351         0.219929        -0.676948
 C         2.720005         0.377976         0.779091
 O         2.999095         1.296629         1.878939
 H         5.439183        -1.485888         0.782164
 H         4.576338        -0.864591         2.134696
 H         4.342866        -2.514944         1.584974
 H         0.001808         0.752935         1.443383
 H        -0.368548         0.993072        -0.267999
 H        -0.836108        -0.449770         0.415006
 H         1.873058        -0.256961        -2.166417
 H         1.787551         1.428572        -1.481398
 H         4.260137         0.636991        -1.080666
 H         3.019420         2.197370         1.566866
