19
Iteration:  4118charge 0 multiplicity 1
 C         4.297591        -1.750626         0.994661
 C         3.306820        -0.820075         0.439935
 O         1.946348        -1.403383         0.106903
 C         1.419359        -0.146531        -0.007707
 C        -0.045235        -0.076817         0.539092
 C         2.099611         0.457100        -1.327132
 C         3.507271         0.433767        -0.507918
 C         2.756001         0.544916         0.849655
 O         2.861338         1.332675         2.031144
 H         5.139125        -2.111460         0.298138
 H         4.781470        -1.331381         1.839147
 H         3.819385        -2.699271         1.355672
 H        -0.058226        -0.701211         1.415163
 H        -0.363135         0.985622         0.654525
 H        -0.751380        -0.561970        -0.222654
 H         2.095028        -0.235612        -2.151092
 H         1.838666         1.476328        -1.638903
 H         4.454944         0.810090        -0.813331
 H         2.790353         2.242230         1.717448
