19
Iteration:  1791charge 0 multiplicity 1
 C         4.442430        -1.604785         1.017355
 C         3.256203        -0.804078         0.488765
 O         1.887098        -1.422248         0.302066
 C         1.399071        -0.002678         0.064167
 C         0.014110        -0.161958         0.404611
 C         2.114374         0.460254        -1.302569
 C         3.328942         0.408857        -0.551103
 C         2.708394         0.497966         0.782464
 O         2.914636         1.244468         1.894458
 H         5.453861        -1.219190         0.686239
 H         4.441171        -1.578919         2.059947
 H         4.348185        -2.670656         0.736550
 H        -0.522719        -1.014042         0.023921
 H        -0.242698        -0.008638         1.424799
 H        -0.499578         0.703331         0.023259
 H         1.840166        -0.150297        -2.185989
 H         1.721221         1.453766        -1.406365
 H         4.381595         0.684435        -0.845133
 H         3.847717         1.563808         1.924946
