19
Iteration:  4269charge 0 multiplicity 1
 C         4.461312        -1.704157         0.890503
 C         3.244411        -0.905777         0.489719
 O         1.995469        -1.448411         0.303986
 C         1.458319        -0.108216         0.026875
 C        -0.080041         0.037266         0.297750
 C         2.067802         0.410936        -1.305553
 C         3.398878         0.506939        -0.478973
 C         2.755184         0.495943         0.876530
 O         2.862429         1.280425         2.040292
 H         4.288479        -2.792041         0.562007
 H         5.318004        -1.450363         0.332175
 H         4.794358        -1.620417         1.966375
 H        -0.578679        -0.785514        -0.234649
 H        -0.454413         0.009677         1.368101
 H        -0.364229         0.939091        -0.187262
 H         2.151195        -0.097421        -2.275739
 H         1.663253         1.481983        -1.529221
 H         4.397325         0.724388        -0.763969
 H         2.157567         1.921396         2.132098
