19
Iteration:  1524charge 0 multiplicity 1
 C         4.452148        -1.756102         0.993840
 C         3.297016        -0.888210         0.497134
 O         2.100264        -1.523124         0.019309
 C         1.451384        -0.126543        -0.046928
 C         0.078167         0.010996         0.472037
 C         2.107492         0.628632        -1.190856
 C         3.423469         0.471873        -0.416654
 C         2.701830         0.483637         0.812646
 O         2.563823         1.240221         1.973535
 H         4.776313        -1.442108         1.977571
 H         4.002236        -2.829188         0.961911
 H         5.228008        -1.681317         0.204038
 H         0.029176         0.127028         1.571981
 H        -0.469153         0.917327         0.111457
 H        -0.639269        -0.843795         0.260825
 H         1.969522         0.332287        -2.251495
 H         1.610118         1.617319        -0.916868
 H         4.365929         0.812100        -0.834483
 H         3.125957         2.056727         1.998224
