19
Iteration:  2191charge 0 multiplicity 1
 C         4.491230        -1.650194         1.115718
 C         3.249248        -0.878266         0.513767
 O         1.851398        -1.501398         0.262492
 C         1.397616        -0.115039         0.167089
 C        -0.033207         0.168936         0.467799
 C         1.891936         0.349030        -1.179316
 C         3.319128         0.219842        -0.622565
 C         2.782235         0.482062         0.756512
 O         3.137717         1.410388         1.724596
 H         4.598315        -1.380551         2.188782
 H         4.132668        -2.623689         0.839384
 H         5.401071        -1.447581         0.561554
 H        -0.407389        -0.247360         1.420544
 H        -0.241059         1.203455         0.291525
 H        -0.556554        -0.336347        -0.368836
 H         1.526987        -0.322429        -1.975126
 H         1.514246         1.404035        -1.297109
 H         4.321901         0.539871        -0.869305
 H         3.474528         2.185138         1.217939
