19
Iteration:  3178
 C         4.354176        -1.653969         1.296944
 C         3.400024        -0.797262         0.395023
 O         1.886235        -1.430414         0.360538
 C         1.419566        -0.178816         0.090817
 C         0.077230         0.293381         0.623628
 C         1.974306         0.138008        -1.384456
 C         3.367004         0.266599        -0.780297
 C         2.758157         0.484986         0.645074
 O         2.879559         1.355030         1.773729
 H         4.991421        -0.870880         1.879667
 H         3.593533        -2.071928         2.045966
 H         4.984190        -2.467027         0.809026
 H        -0.161593        -0.283326         1.558620
 H         0.156655         1.349112         0.835559
 H        -0.784639         0.254410         0.011375
 H         1.838193        -0.697578        -2.098046
 H         1.652689         1.185737        -1.712025
 H         4.395312         0.661568        -1.167662
 H         3.637663         1.945761         1.469987
