19
Iteration:  1936charge 0 multiplicity 1
 C         4.342823        -1.583452         0.968282
 C         3.301328        -0.770236         0.439949
 O         2.006507        -1.491273         0.312777
 C         1.411487        -0.182964         0.057311
 C        -0.019797         0.094508         0.352567
 C         1.999020         0.372575        -1.227083
 C         3.330054         0.377086        -0.602503
 C         2.706322         0.523388         0.849260
 O         3.018375         1.182848         1.957076
 H         3.936829        -2.389757         1.579554
 H         5.137537        -2.025313         0.278574
 H         4.971596        -1.012396         1.647362
 H        -0.224123         0.316871         1.403477
 H        -0.401277         1.044473        -0.119946
 H        -0.876499        -0.571280         0.099148
 H         1.859069        -0.275741        -2.138484
 H         1.608089         1.381024        -1.460167
 H         4.248406         0.862282        -0.894749
 H         3.258474         2.062409         1.668801
