19
Iteration:  2692
 C         4.408364        -1.768814         0.919334
 C         3.288829        -0.875846         0.542795
 O         2.027180        -1.406880         0.510895
 C         1.436825        -0.123933         0.200063
 C        -0.081523         0.062346         0.453590
 C         1.943764         0.284423        -1.222542
 C         3.242675         0.309508        -0.597365
 C         2.798414         0.482298         0.814717
 O         3.031935         1.603681         1.509762
 H         5.307929        -1.471702         1.484320
 H         3.828698        -2.252073         1.724194
 H         4.718448        -2.504217         0.162192
 H        -0.288394        -0.249388         1.547063
 H        -0.268919         1.110554         0.067390
 H        -0.357923        -0.764783        -0.288683
 H         1.744036        -0.479744        -2.032463
 H         1.389787         1.214899        -1.465984
 H         4.294544         0.571914        -0.876679
 H         3.010313         1.689869         2.446986
