19
Iteration:   151charge 0 multiplicity 1
 C         4.254244        -1.829829         0.785765
 C         3.283575        -0.750172         0.373846
 O         2.095177        -1.252035        -0.122697
 C         1.397355         0.070621         0.042316
 C        -0.109590        -0.098565        -0.079339
 C         2.189495         0.741265        -1.094365
 C         3.514469         0.636101        -0.312443
 C         2.700887         0.465467         1.072789
 O         2.824127         0.827946         2.482578
 H         3.787683        -2.627145         1.340200
 H         4.752000        -2.299107        -0.079177
 H         5.034519        -1.375642         1.496216
 H        -0.546014         0.668775        -0.678560
 H        -0.402487        -1.049169        -0.601985
 H        -0.741684        -0.027070         0.842239
 H         1.987533         0.129188        -2.004909
 H         1.798378         1.872669        -1.306110
 H         4.395858         1.106005        -0.564362
 H         3.231178         0.016145         2.777383
