19
Iteration:  3058charge 0 multiplicity 1
 C         4.395519        -1.751340         0.879292
 C         3.283887        -0.821905         0.577696
 O         1.979927        -1.370278         0.590682
 C         1.399903        -0.024209         0.193001
 C        -0.081087         0.152466         0.329349
 C         2.026802         0.120069        -1.299742
 C         3.323303         0.214502        -0.568642
 C         2.765631         0.515583         0.809187
 O         2.929481         1.549904         1.683046
 H         5.342099        -1.425936         0.469857
 H         4.542544        -2.011075         1.913559
 H         4.191970        -2.675778         0.348687
 H        -0.398946         0.316816         1.376827
 H        -0.261998         0.910119        -0.418485
 H        -0.619641        -0.699500        -0.065544
 H         2.122219        -0.756722        -1.869999
 H         1.796998         1.094071        -1.721406
 H         4.285101         0.377480        -0.968688
 H         3.841646         1.589244         1.955836
