19
Iteration:    40charge 0 multiplicity 1
 C         4.251012        -1.939841         0.661938
 C         3.286328        -0.824544         0.473884
 O         2.073256        -1.344944        -0.072418
 C         1.551283         0.026573        -0.106904
 C         0.111805        -0.049744         0.381347
 C         2.381879         0.805043        -1.225288
 C         3.512341         0.628793        -0.216935
 C         2.603420         0.412601         0.975580
 O         2.431582         1.024460         2.213050
 H         3.822845        -2.649790         1.370609
 H         4.632187        -2.368624        -0.268554
 H         5.197840        -1.434640         1.096307
 H         0.178109         0.283658         1.460070
 H        -0.586286         0.506418        -0.280723
 H        -0.163863        -1.143935         0.325045
 H         2.432035         0.209162        -2.235881
 H         1.975286         1.923002        -1.236489
 H         4.454353         1.292665        -0.219565
 H         2.361083         0.249500         2.842720
