19
Iteration:  4889charge 0 multiplicity 1
 C         4.427700        -1.738561         0.909520
 C         3.290712        -0.845498         0.390169
 O         2.001801        -1.419550         0.065551
 C         1.447319        -0.115978         0.041887
 C        -0.029919         0.029861         0.361720
 C         2.183242         0.571470        -1.270982
 C         3.322196         0.525748        -0.345580
 C         2.677207         0.398844         0.941532
 O         2.816552         1.250268         2.039186
 H         5.156589        -1.770644         0.023013
 H         5.101242        -1.487694         1.683896
 H         4.074199        -2.835626         0.921184
 H        -0.615438        -0.764763        -0.152585
 H        -0.078424        -0.170804         1.502779
 H        -0.434247         0.956549        -0.004657
 H         2.215754        -0.036296        -2.155215
 H         1.856980         1.560128        -1.584041
 H         4.301969         0.964859        -0.552056
 H         2.271902         0.828007         2.732359
