19
Iteration:  1348charge 0 multiplicity 1
 C         4.309019        -1.784289         1.009660
 C         3.431769        -0.755307         0.396810
 O         2.191173        -1.376857         0.008991
 C         1.516185        -0.136905         0.078303
 C         0.043228        -0.102794         0.322579
 C         1.991549         0.601513        -1.145944
 C         3.468156         0.521150        -0.506653
 C         2.700301         0.506218         0.879945
 O         2.569495         1.124765         2.129844
 H         4.083644        -2.763517         0.501358
 H         5.405209        -1.774389         0.714043
 H         4.130749        -1.916017         2.110917
 H        -0.245801        -1.192961         0.458885
 H        -0.343976         0.632586         1.086828
 H        -0.543497         0.328559        -0.592165
 H         1.795009         0.199715        -2.185091
 H         1.775402         1.669994        -1.252193
 H         4.265495         1.007158        -1.110841
 H         2.754820         2.084646         2.065027
