19
Iteration:   921charge 0 multiplicity 1
 C         4.604244        -1.515055         0.813859
 C         3.259110        -0.835150         0.516189
 O         2.001732        -1.484994        -0.076968
 C         1.516327        -0.135241        -0.026285
 C        -0.014443         0.036553         0.257397
 C         2.206362         0.635880        -1.146557
 C         3.419031         0.360817        -0.326764
 C         2.548881         0.324832         1.039953
 O         2.577511         1.118944         2.140848
 H         4.573391        -2.307827         1.689480
 H         4.939801        -1.951718        -0.109272
 H         5.300957        -0.661959         1.024468
 H        -0.397194        -0.892095         0.665504
 H        -0.144627         0.700532         1.093805
 H        -0.726604         0.306356        -0.557702
 H         2.050151         0.028790        -2.133190
 H         2.159799         1.699337        -1.258668
 H         4.489722         0.839847        -0.412901
 H         2.766463         2.048743         1.875749
