19
Iteration:  1820charge 0 multiplicity 1
 C         4.323177        -1.739746         1.048926
 C         3.374689        -0.806530         0.405697
 O         2.110406        -1.479200         0.110902
 C         1.414805        -0.110782         0.087528
 C        -0.046280        -0.056756         0.458706
 C         2.001321         0.406594        -1.193928
 C         3.331708         0.413538        -0.577309
 C         2.759259         0.448051         0.897343
 O         2.871435         1.446166         1.886168
 H         5.157012        -1.140664         1.522360
 H         3.778170        -2.142736         1.981912
 H         4.552613        -2.624591         0.384048
 H        -0.645978        -1.012736         0.452991
 H        -0.226553         0.563859         1.388543
 H        -0.568378         0.661078        -0.273043
 H         1.537382        -0.083143        -2.105134
 H         1.586203         1.473188        -1.231399
 H         4.266723         0.749590        -0.961197
 H         3.722151         1.872591         1.788563
