19
Iteration:  2911
 C         4.480581        -1.615735         0.950213
 C         3.148457        -0.862496         0.648519
 O         1.890019        -1.428723         0.497381
 C         1.396477        -0.072190         0.113331
 C        -0.022039         0.082317         0.418672
 C         1.905887         0.122974        -1.252889
 C         3.309449         0.214225        -0.626658
 C         2.777974         0.535459         0.784123
 O         3.147652         1.585710         1.609117
 H         5.093181        -1.001227         1.676095
 H         4.347217        -2.693689         1.374107
 H         5.091689        -1.834778         0.020315
 H        -0.133128         0.169464         1.489053
 H        -0.319226         1.069489         0.039872
 H        -0.525995        -0.763443        -0.056987
 H         1.775330        -0.591411        -2.125310
 H         1.532998         1.129872        -1.520121
 H         4.241855         0.548590        -1.057020
 H         3.098338         1.052487         2.462783
