19
Iteration:  4068charge 0 multiplicity 1
 C         4.502717        -1.565131         0.798940
 C         3.253469        -0.892879         0.500244
 O         1.949541        -1.480240         0.349233
 C         1.405264        -0.143267         0.112338
 C        -0.127067         0.130423         0.085610
 C         2.085240         0.416772        -1.185825
 C         3.352751         0.415104        -0.490725
 C         2.711262         0.431018         0.914830
 O         2.932269         1.169116         2.080214
 H         4.844346        -2.338972         0.151604
 H         5.345455        -0.783180         0.721390
 H         4.588145        -2.055532         1.768785
 H        -0.181747         0.488683         1.108191
 H        -0.215807         1.009757        -0.515009
 H        -0.859599        -0.645792        -0.120870
 H         1.989685        -0.131152        -2.176544
 H         1.761999         1.463824        -1.237614
 H         4.313824         0.740480        -0.826037
 H         2.863497         2.150417         1.876238
