19
Iteration:   952charge 0 multiplicity 1
 C         4.410904        -1.639407         0.979262
 C         3.379569        -0.779928         0.406993
 O         2.131756        -1.489560         0.041937
 C         1.487359        -0.182304         0.050941
 C        -0.077890         0.033536         0.234553
 C         2.099736         0.620730        -1.212360
 C         3.392970         0.699998        -0.452225
 C         2.694301         0.463666         0.893890
 O         2.674497         0.906588         2.155483
 H         4.179083        -2.012488         2.011737
 H         4.689836        -2.519428         0.452498
 H         5.357212        -1.094728         1.217520
 H        -0.405297        -0.958177         0.609979
 H        -0.301848         0.782834         1.075928
 H        -0.490203         0.629031        -0.593014
 H         2.088851         0.001758        -2.117880
 H         1.680200         1.555778        -1.448544
 H         4.381650         1.122972        -0.854444
 H         2.046949         1.650702         2.105571
