19
Iteration:  4537
 C         4.327812        -1.578221         1.137080
 C         3.319783        -0.861027         0.408998
 O         2.054289        -1.488453         0.047801
 C         1.446322        -0.145678         0.027697
 C         0.082940         0.043193         0.477927
 C         2.052820         0.583386        -1.302685
 C         3.369710         0.451053        -0.525246
 C         2.712055         0.466164         0.799084
 O         2.786679         1.174520         1.978201
 H         4.395913        -2.612171         0.883100
 H         5.297924        -1.158276         0.702275
 H         4.151508        -1.572372         2.198815
 H        -0.613216        -0.259845        -0.337877
 H         0.012820        -0.640628         1.309094
 H        -0.124609         1.092554         0.785336
 H         1.858582         0.038050        -2.306903
 H         1.746760         1.628996        -1.398763
 H         4.425168         0.863750        -0.773717
 H         2.424279         0.575091         2.667604
