19
Iteration:  1423
 C         4.508375        -1.531322         0.985444
 C         3.281221        -0.823486         0.431812
 O         2.011569        -1.433627         0.134962
 C         1.410865        -0.034640         0.133277
 C        -0.101160        -0.054944         0.140423
 C         2.095021         0.511957        -1.229951
 C         3.331466         0.532175        -0.522920
 C         2.732612         0.428534         0.949738
 O         2.826596         1.024041         2.160584
 H         5.510936        -1.278331         0.504424
 H         4.612860        -1.251684         2.042116
 H         4.327734        -2.632619         0.812268
 H        -0.555652        -0.849579         0.728875
 H        -0.569514         0.904524         0.296071
 H        -0.423298        -0.399426        -0.837650
 H         2.018638        -0.067954        -2.229118
 H         1.702492         1.496255        -1.501261
 H         4.322975         0.870089        -0.832267
 H         3.304512         1.855206         2.075975
