19
Iteration:  3723charge 0 multiplicity 1
 C         4.517461        -1.631552         0.714700
 C         3.220226        -0.837671         0.470922
 O         1.920641        -1.498265         0.226528
 C         1.421371        -0.140747         0.046850
 C        -0.058910         0.178425         0.202347
 C         2.148108         0.489141        -1.250025
 C         3.392596         0.464958        -0.464580
 C         2.738513         0.436547         0.963059
 O         2.814101         1.081441         2.224753
 H         4.882978        -2.313920        -0.044807
 H         5.390373        -0.957270         0.991696
 H         4.325557        -2.316516         1.601173
 H        -0.342569         1.261719        -0.001190
 H        -0.730214        -0.393020        -0.457153
 H        -0.406090         0.006306         1.185744
 H         2.093498        -0.122090        -2.160844
 H         1.981247         1.565522        -1.527106
 H         4.418558         0.812966        -0.589373
 H         2.838561         2.041945         2.026710
