19
Iteration:  3638
 C         4.182555        -1.867505         1.041371
 C         3.237999        -0.874443         0.465833
 O         2.081161        -1.358122        -0.009610
 C         1.404895        -0.007098         0.057239
 C        -0.012913        -0.191554         0.428838
 C         2.081677         0.697227        -1.151202
 C         3.497120         0.520975        -0.506761
 C         2.721649         0.460387         0.847658
 O         2.943010         1.235880         1.986543
 H         5.186511        -1.475080         1.151393
 H         3.788736        -2.226075         1.985440
 H         4.233258        -2.798320         0.471094
 H        -0.381542         0.189867         1.385829
 H        -0.545520         0.271195        -0.412162
 H        -0.199500        -1.226964         0.343506
 H         1.767120         0.134859        -2.006723
 H         1.726515         1.736555        -1.214477
 H         4.527576         0.799335        -0.743967
 H         2.928787         2.139035         1.639889
