19
Iteration:  1929charge 0 multiplicity 1
 C         4.367948        -1.630876         0.996215
 C         3.282257        -0.767778         0.409618
 O         2.020617        -1.490363         0.314504
 C         1.439434        -0.219289         0.125192
 C        -0.016519         0.165073         0.336261
 C         1.990028         0.343973        -1.259587
 C         3.288117         0.407662        -0.580761
 C         2.733250         0.506009         0.782599
 O         2.977860         1.201782         1.985904
 H         4.064156        -2.419738         1.688181
 H         4.865900        -2.100694         0.121796
 H         5.114267        -1.001753         1.531635
 H        -0.056328         0.118364         1.490022
 H        -0.226641         1.150897        -0.178400
 H        -0.726353        -0.614779        -0.084308
 H         1.805168        -0.350293        -2.048536
 H         1.692049         1.396366        -1.467093
 H         4.071807         1.069645        -0.996536
 H         3.174983         2.140956         1.858373
