19
Iteration:  1272
 C         4.544554        -1.571338         0.784136
 C         3.289947        -0.867231         0.423795
 O         2.067550        -1.543914        -0.030648
 C         1.443885        -0.114144         0.014666
 C        -0.044886         0.011383         0.225058
 C         2.186502         0.612373        -1.067413
 C         3.403272         0.430248        -0.317159
 C         2.599374         0.380337         1.004131
 O         2.601450         1.174974         2.151384
 H         4.548023        -2.212991         1.713243
 H         4.903769        -2.376213         0.092423
 H         5.416340        -0.877891         0.906116
 H        -0.505266        -0.616456         1.043067
 H        -0.123021         1.100133         0.589074
 H        -0.550479         0.107662        -0.809326
 H         2.090729         0.183723        -2.090065
 H         1.887244         1.655049        -1.085010
 H         4.466022         0.727280        -0.517884
 H         2.846332         2.058435         1.854985
