19
Iteration:  4950
 C         4.514976        -1.564403         0.935697
 C         3.347569        -0.824074         0.363130
 O         1.945568        -1.477626         0.154155
 C         1.407150        -0.062399         0.063003
 C        -0.113336         0.148512         0.206799
 C         2.066369         0.488879        -1.254053
 C         3.418524         0.477868        -0.475139
 C         2.752240         0.421822         0.862857
 O         2.797138         1.035776         2.194957
 H         4.926694        -2.077382         0.069624
 H         5.249529        -0.786270         1.291420
 H         4.183033        -2.148232         1.784817
 H        -0.617643        -0.764835        -0.149844
 H        -0.522746         0.147641         1.225050
 H        -0.457670         1.083245        -0.256261
 H         1.732369        -0.038313        -2.238544
 H         1.858405         1.596647        -1.354279
 H         4.400338         0.988554        -0.693089
 H         3.404844         0.467270         2.741068
