19
Iteration:  3960
 C         4.272571        -1.709964         1.140506
 C         3.304111        -0.891520         0.379003
 O         2.086066        -1.508313        -0.113412
 C         1.481952        -0.102618        -0.008851
 C         0.116779         0.000231         0.556115
 C         2.055998         0.652059        -1.187731
 C         3.428831         0.394484        -0.511753
 C         2.627445         0.401365         0.863885
 O         2.729704         1.268620         2.014772
 H         3.727313        -2.380464         1.789788
 H         4.869867        -2.270181         0.280682
 H         5.073316        -1.125612         1.647554
 H         0.160081         0.706538         1.439819
 H        -0.577327         0.376451        -0.169797
 H        -0.104531        -1.012836         0.795723
 H         1.930187         0.178453        -2.219630
 H         1.963697         1.730926        -1.355594
 H         4.286854         0.962591        -0.639120
 H         2.928711         2.170828         1.655683
