19
Iteration:  3269
 C         4.138733        -1.851144         1.011462
 C         3.335801        -0.740116         0.539686
 O         1.996405        -1.396137         0.414300
 C         1.434773        -0.164074         0.161990
 C        -0.036762        -0.035252         0.375448
 C         2.034745         0.207486        -1.183366
 C         3.402715         0.267414        -0.565885
 C         2.786424         0.594472         0.745656
 O         3.067351         1.619731         1.707269
 H         5.089507        -1.491280         1.505227
 H         3.557758        -2.562702         1.692272
 H         4.516710        -2.448999         0.141615
 H        -0.432804        -0.812566         1.002481
 H        -0.275541         0.968836         0.879766
 H        -0.619537         0.032201        -0.598111
 H         1.785220        -0.587140        -1.942049
 H         1.785750         1.248873        -1.453946
 H         4.242415         0.693486        -1.008900
 H         2.951366         2.486033         1.253212
