19
Iteration:   432
 C         4.496645        -1.668025         0.709156
 C         3.252586        -0.937728         0.399067
 O         2.101210        -1.379826        -0.280780
 C         1.490632         0.015884        -0.010268
 C        -0.055733         0.152151         0.296201
 C         2.298118         0.794624        -1.062566
 C         3.499472         0.459696        -0.296766
 C         2.532201         0.196348         1.117272
 O         2.456219         0.879778         2.302346
 H         4.326985        -2.138277         1.662054
 H         4.801760        -2.100180        -0.250407
 H         5.317091        -0.892784         0.884819
 H        -0.118945         1.229199         0.087558
 H        -0.470150        -0.566541        -0.367426
 H        -0.193826        -0.081312         1.394739
 H         2.279850         0.530162        -2.080017
 H         2.050497         1.857630        -1.076768
 H         4.495848         0.867570        -0.253644
 H         3.173988         1.559545         2.258416
