19
Iteration:  2583
 C         4.450137        -1.562678         1.059922
 C         3.279548        -0.816412         0.421776
 O         1.979478        -1.513249         0.430558
 C         1.428541        -0.086303         0.169715
 C        -0.042353         0.301799         0.465496
 C         1.831261         0.082940        -1.215192
 C         3.342170         0.233589        -0.677978
 C         2.795047         0.537154         0.713879
 O         3.052359         1.406650         1.687541
 H         4.346190        -1.594974         2.143806
 H         4.504569        -2.527267         0.618207
 H         5.378406        -1.066593         0.809968
 H        -0.367921         0.032003         1.546531
 H        -0.253718         1.393876         0.474091
 H        -0.818335        -0.240378        -0.181477
 H         1.431162        -0.670632        -1.908680
 H         1.471075         1.067661        -1.504777
 H         4.247817         0.513956        -1.223870
 H         3.312179         0.959247         2.508959
