19
Iteration:  3125charge 0 multiplicity 1
 C         4.393969        -1.665922         1.235157
 C         3.170468        -0.899717         0.517739
 O         1.844974        -1.422826         0.277996
 C         1.358882        -0.049646         0.045296
 C        -0.029992         0.014254         0.590018
 C         2.113908         0.312665        -1.331542
 C         3.385139         0.200886        -0.566638
 C         2.721583         0.577037         0.667652
 O         3.155878         1.473367         1.671470
 H         5.307588        -1.413038         0.756234
 H         4.265247        -1.617168         2.318053
 H         4.220485        -2.703622         1.015205
 H        -0.121772         0.200612         1.714216
 H        -0.696757         0.674724         0.013808
 H        -0.530091        -0.942615         0.476447
 H         1.997880        -0.433515        -2.118755
 H         1.930824         1.385149        -1.536954
 H         4.458012         0.328380        -0.974592
 H         2.559061         2.283203         1.673568
