19
Iteration:  2029charge 0 multiplicity 1
 C         4.366577        -1.802058         0.957220
 C         3.348550        -0.814662         0.476573
 O         2.014147        -1.468674         0.276252
 C         1.453309        -0.057617         0.168193
 C         0.062049         0.151486         0.490498
 C         1.948073         0.284064        -1.306101
 C         3.254742         0.388421        -0.552176
 C         2.750658         0.536553         0.807463
 O         2.913373         1.360279         1.837248
 H         4.957383        -2.435696         0.286624
 H         4.951280        -1.412373         1.718654
 H         3.845633        -2.483679         1.604012
 H        -0.190539        -0.259968         1.519205
 H        -0.218398         1.199510         0.371939
 H        -0.561054        -0.375514        -0.279773
 H         2.001541        -0.479533        -2.051022
 H         1.541407         1.221793        -1.688052
 H         4.232298         0.688965        -0.911307
 H         3.160821         2.278390         1.545592
