19
Iteration:  3180
 C         4.376414        -1.637048         1.276749
 C         3.394097        -0.827384         0.403102
 O         1.887569        -1.433366         0.374102
 C         1.426292        -0.166849         0.059220
 C         0.075434         0.302303         0.614475
 C         1.979069         0.128660        -1.387101
 C         3.342295         0.257672        -0.768604
 C         2.760452         0.472252         0.642491
 O         2.881255         1.373480         1.795961
 H         4.929469        -0.930548         1.946550
 H         3.636617        -2.083428         2.013708
 H         4.958694        -2.412589         0.772054
 H        -0.152190        -0.292094         1.548954
 H         0.179898         1.396161         0.908027
 H        -0.783917         0.293124        -0.048283
 H         1.833424        -0.685110        -2.131762
 H         1.602028         1.132746        -1.746515
 H         4.358775         0.697871        -1.126328
 H         3.649726         1.921606         1.480778
