19
Iteration:  1859
 C         4.393957        -1.718552         0.923259
 C         3.195686        -0.915400         0.555273
 O         1.989810        -1.457333         0.233301
 C         1.449718        -0.062732         0.013914
 C         0.050454        -0.037091         0.569914
 C         2.109758         0.456969        -1.305391
 C         3.414127         0.410979        -0.497634
 C         2.756216         0.438571         0.819882
 O         2.769255         1.414336         1.854477
 H         4.972323        -1.576289         1.828715
 H         3.972490        -2.756846         1.030727
 H         5.113577        -1.860808         0.135970
 H        -0.216063        -0.929604         1.085360
 H         0.020849         0.793345         1.343549
 H        -0.818495         0.301703        -0.050351
 H         2.209661        -0.045808        -2.291826
 H         1.861945         1.502881        -1.432872
 H         4.406640         0.575306        -0.907529
 H         2.655509         2.251744         1.335006
