19
Iteration:  4378charge 0 multiplicity 1
 C         4.462330        -1.611838         0.973714
 C         3.249768        -0.834142         0.478756
 O         2.019643        -1.463650         0.131689
 C         1.419728        -0.054023         0.096881
 C        -0.033518         0.082604         0.426502
 C         2.067257         0.338905        -1.309814
 C         3.405417         0.345909        -0.554089
 C         2.802398         0.546648         0.821288
 O         2.740219         1.311255         1.994273
 H         4.880236        -2.410287         0.311771
 H         5.097636        -0.819701         1.217050
 H         4.229516        -2.220208         1.875690
 H        -0.650476         0.086772        -0.511121
 H        -0.315070        -0.794366         1.127680
 H        -0.343645         0.903927         1.129288
 H         1.905049        -0.373673        -2.068940
 H         1.836813         1.400928        -1.556036
 H         4.417943         0.649210        -1.027754
 H         3.066505         0.693920         2.712506
