19
Iteration:  4079charge 0 multiplicity 1
 C         4.531192        -1.555628         0.825664
 C         3.192332        -0.846150         0.587526
 O         1.911264        -1.478519         0.262794
 C         1.404013        -0.129209         0.097665
 C        -0.040461         0.113796         0.220378
 C         2.075411         0.391178        -1.195477
 C         3.419207         0.395630        -0.459889
 C         2.718142         0.487541         0.849864
 O         2.915479         1.142058         2.027006
 H         4.599876        -2.007304        -0.121690
 H         5.380216        -0.820972         1.034736
 H         4.474770        -2.266966         1.631467
 H        -0.606819         0.382894         1.105948
 H        -0.214395         0.931414        -0.472206
 H        -0.615394        -0.670735        -0.270969
 H         1.876114        -0.246521        -2.110825
 H         1.607070         1.362551        -1.376416
 H         4.426435         0.758466        -0.601734
 H         3.011356         2.101931         1.880623
