19
Iteration:  1882
 C         4.446240        -1.669473         0.821444
 C         3.224560        -0.799495         0.486986
 O         1.934863        -1.482122         0.286238
 C         1.473787        -0.039701         0.049067
 C         0.046060         0.063181         0.577788
 C         2.159390         0.325364        -1.317004
 C         3.475707         0.243294        -0.538041
 C         2.637171         0.537969         0.786247
 O         2.776703         1.341723         1.947555
 H         4.732534        -1.659837         1.870220
 H         4.270193        -2.774540         0.609296
 H         5.367684        -1.411432         0.327628
 H        -0.320900        -0.680919         1.294087
 H        -0.172522         1.144730         0.949280
 H        -0.679843         0.179459        -0.295169
 H         1.970360        -0.236589        -2.259707
 H         1.973749         1.403397        -1.384530
 H         4.446650         0.654646        -0.683803
 H         2.236306         2.129459         1.866608
