19
Iteration:  3218charge 0 multiplicity 1
 C         4.512527        -1.527932         0.956768
 C         3.167370        -0.937588         0.616097
 O         1.830276        -1.427752         0.399854
 C         1.405902        -0.119224         0.147000
 C        -0.030215         0.319192         0.458849
 C         2.085679         0.113073        -1.238528
 C         3.448450         0.088663        -0.553869
 C         2.745423         0.473224         0.741582
 O         2.900456         1.473137         1.692668
 H         5.218242        -1.032558         1.611928
 H         4.203118        -2.517649         1.214327
 H         5.212651        -1.747137         0.131394
 H        -0.598158        -0.448470         0.989954
 H        -0.002563         1.277519         0.994038
 H        -0.622072         0.468433        -0.498273
 H         1.883438        -0.691612        -1.956440
 H         1.816858         1.134564        -1.495783
 H         4.425837         0.214713        -0.972508
 H         3.505267         2.141210         1.402710
