19
Iteration:  1572
 C         4.407609        -1.661202         0.889211
 C         3.280426        -0.771766         0.526070
 O         2.012643        -1.431096         0.150890
 C         1.420408        -0.122585         0.078172
 C        -0.056053        -0.038599         0.256670
 C         2.119578         0.413967        -1.265552
 C         3.454566         0.545322        -0.552347
 C         2.696720         0.516566         0.855193
 O         2.755461         1.194696         2.164145
 H         4.589362        -1.526134         1.988913
 H         4.178470        -2.663131         0.657396
 H         5.287594        -1.347641         0.333509
 H        -0.388645        -0.719210         1.077554
 H        -0.284393         0.945548         0.713737
 H        -0.733448        -0.161170        -0.591811
 H         2.024375        -0.345548        -2.038477
 H         1.741580         1.359841        -1.598406
 H         4.466722         0.826131        -0.853956
 H         3.709370         1.275274         2.258060
