19
Iteration:   467charge 0 multiplicity 1
 C         4.479151        -1.820517         0.708069
 C         3.303361        -0.874210         0.365112
 O         2.081848        -1.443767        -0.099927
 C         1.517299        -0.107689         0.053472
 C         0.071025         0.141794         0.235894
 C         2.179175         0.870466        -1.053801
 C         3.425798         0.716808        -0.249600
 C         2.668749         0.234439         0.991823
 O         2.421848         0.900551         2.182269
 H         4.287417        -2.643202         1.337800
 H         4.916387        -2.420796        -0.093072
 H         5.217673        -1.247931         1.160020
 H        -0.120929         1.097924         0.703274
 H        -0.371904         0.266304        -0.738522
 H        -0.576512        -0.544166         0.760360
 H         2.261757         0.519940        -2.091380
 H         1.660745         1.735258        -0.937091
 H         4.394242         1.323904        -0.216841
 H         3.290480         1.097746         2.615086
