19
Iteration:  4384
 C         4.485318        -1.610085         0.907897
 C         3.243464        -0.843883         0.485450
 O         1.997300        -1.442774         0.181797
 C         1.391161        -0.062033         0.084654
 C        -0.039807         0.099534         0.397135
 C         2.089129         0.342329        -1.261993
 C         3.419277         0.337436        -0.525483
 C         2.764369         0.505267         0.799280
 O         2.762673         1.309695         1.988442
 H         5.009985        -2.217579         0.186539
 H         5.150547        -0.749826         1.361003
 H         4.278222        -2.104595         1.871164
 H        -0.690743         0.042728        -0.483071
 H        -0.282048        -0.744473         1.028481
 H        -0.169726         0.981306         0.999103
 H         1.963012        -0.489017        -2.040352
 H         1.804190         1.309307        -1.660023
 H         4.339113         0.745811        -0.772183
 H         2.964104         0.578415         2.568344
