19
Iteration:  2380
 C         4.423176        -1.554909         0.980908
 C         3.225731        -0.860819         0.502803
 O         1.880105        -1.432322         0.463115
 C         1.412550        -0.085261         0.197280
 C        -0.081259         0.233523         0.359354
 C         1.926555         0.152231        -1.178844
 C         3.338992         0.280194        -0.689966
 C         2.869185         0.491091         0.745868
 O         3.091715         1.379130         1.756089
 H         4.510287        -1.520576         2.051941
 H         4.386947        -2.544984         0.628965
 H         5.350249        -1.152419         0.493560
 H        -0.558552        -0.228348         1.199544
 H        -0.389209         1.291883         0.367687
 H        -0.672419        -0.140645        -0.466935
 H         1.871768        -0.669824        -1.936072
 H         1.359055         1.016853        -1.462577
 H         4.243520         0.394853        -1.271574
 H         3.738081         0.977970         2.314222
