19
Iteration:  4673
 C         4.253687        -1.820449         0.984367
 C         3.283747        -0.866567         0.408650
 O         2.094427        -1.427964        -0.077850
 C         1.423349        -0.082996        -0.025061
 C         0.018958        -0.201282         0.487363
 C         2.118682         0.704140        -1.117335
 C         3.448393         0.435824        -0.424101
 C         2.721809         0.469191         0.902232
 O         2.830017         1.401821         1.942208
 H         5.082677        -2.100021         0.253627
 H         4.797874        -1.497140         1.850462
 H         3.621885        -2.687753         1.387581
 H        -0.382300        -1.186877         0.331743
 H         0.046107        -0.164024         1.606961
 H        -0.663324         0.515775         0.057980
 H         2.146974         0.419449        -2.212137
 H         1.692004         1.772585        -1.168825
 H         4.440851         0.917960        -0.573588
 H         1.977553         1.222204         2.458078
