19
Iteration:  3772
 C         4.360307        -1.737027         0.984905
 C         3.303129        -0.809569         0.288346
 O         2.027365        -1.424015        -0.006137
 C         1.448389        -0.048875        -0.025658
 C         0.025781         0.112257         0.548558
 C         2.194925         0.535417        -1.293333
 C         3.480339         0.536260        -0.565488
 C         2.661311         0.407160         0.932954
 O         2.671982         1.043688         2.169952
 H         4.170532        -2.863073         0.894747
 H         5.312561        -1.630238         0.491745
 H         4.658146        -1.646987         2.034204
 H        -0.586476         0.741123        -0.050947
 H        -0.651861        -0.756511         0.670935
 H         0.046357         0.512559         1.640110
 H         2.326997         0.066551        -2.301350
 H         1.806326         1.539415        -1.423298
 H         4.586213         0.709067        -0.850276
 H         2.215136         1.899219         2.253601
