19
Iteration:  1548
 C         4.415412        -1.752615         0.954454
 C         3.453350        -0.834385         0.352219
 O         2.147482        -1.459675         0.070374
 C         1.473244        -0.076919         0.189889
 C         0.028395         0.060110         0.324031
 C         2.036464         0.476128        -1.244822
 C         3.327335         0.541823        -0.460746
 C         2.697481         0.392739         0.881729
 O         2.608842         1.230739         2.047274
 H         4.402544        -1.473699         2.023690
 H         3.785385        -2.689919         0.864045
 H         5.398854        -1.876015         0.491272
 H        -0.386251        -0.107858         1.361230
 H        -0.245136         1.162733         0.223448
 H        -0.655221        -0.540287        -0.346249
 H         1.994846        -0.278650        -2.021698
 H         1.463043         1.411248        -1.453614
 H         4.218401         1.208609        -0.690538
 H         3.509479         1.600917         2.133659
