19
Iteration:  4175
 C         4.308050        -1.675307         1.160874
 C         3.281899        -0.933666         0.327903
 O         2.081384        -1.512572        -0.010181
 C         1.368213        -0.039304         0.028884
 C        -0.031681        -0.050297         0.573090
 C         2.099828         0.569097        -1.182806
 C         3.435810         0.375459        -0.469495
 C         2.749738         0.440187         0.827876
 O         2.823245         1.354163         1.898435
 H         5.025887        -2.044826         0.401623
 H         4.791299        -1.257525         2.045561
 H         3.793325        -2.549887         1.510898
 H        -0.381204        -1.008771         0.983185
 H        -0.186271         0.648596         1.401821
 H        -0.689569         0.315372        -0.366290
 H         2.050175        -0.005324        -2.117061
 H         1.886472         1.577977        -1.383952
 H         4.315737         0.828798        -0.983084
 H         3.145435         2.231622         1.521549
