19
Iteration:  1386
 C         4.400913        -1.509137         0.952903
 C         3.194668        -0.826689         0.494456
 O         1.995856        -1.484592        -0.024563
 C         1.393267        -0.157002        -0.086962
 C        -0.115821        -0.114099         0.302206
 C         2.259834         0.613178        -1.234008
 C         3.382629         0.505509        -0.307660
 C         2.624395         0.407434         0.949684
 O         2.947417         1.116031         2.086594
 H         4.965569        -1.921273         0.101552
 H         4.857960        -0.642860         1.461588
 H         4.236369        -2.224243         1.768553
 H        -0.404389        -1.099941         0.709932
 H        -0.354560         0.537498         1.143767
 H        -0.722956         0.019894        -0.594047
 H         2.294165         0.057759        -2.166985
 H         1.988432         1.684770        -1.304366
 H         4.417462         0.849334        -0.471694
 H         2.717442         2.034148         1.939585
