19
Iteration:  3833
 C         4.309903        -1.789760         1.051143
 C         3.212240        -0.865887         0.308061
 O         2.035283        -1.422671        -0.059564
 C         1.398975        -0.080575        -0.033946
 C        -0.146593        -0.210384         0.325387
 C         2.117818         0.733561        -1.141983
 C         3.454035         0.454492        -0.418816
 C         2.771343         0.478937         0.974026
 O         2.938215         1.242730         2.119980
 H         3.826583        -2.205860         1.916512
 H         4.646004        -2.532468         0.344036
 H         5.044233        -1.012467         1.298085
 H        -0.676253         0.456388        -0.397598
 H        -0.264564        -1.283609         0.107112
 H        -0.374319         0.131865         1.299460
 H         2.118313         0.446038        -2.191929
 H         1.747505         1.784810        -1.001439
 H         4.430728         0.756312        -0.602903
 H         3.281587         2.129066         1.922598
