19
Iteration:  3813
 C         4.232414        -1.793743         1.106714
 C         3.330813        -0.817114         0.371855
 O         2.031094        -1.378936        -0.124527
 C         1.427499        -0.042613         0.041368
 C        -0.019295        -0.186771         0.455500
 C         2.150528         0.727171        -1.200770
 C         3.449287         0.523216        -0.443305
 C         2.707107         0.400637         0.847536
 O         2.825375         1.150590         2.054045
 H         3.497788        -2.526493         1.563698
 H         4.902660        -2.308813         0.424660
 H         4.741872        -1.227001         1.932352
 H        -0.678212         0.399633        -0.087094
 H        -0.247739        -1.255812         0.485081
 H         0.004516         0.247718         1.439955
 H         1.854228         0.317654        -2.166224
 H         2.008547         1.830713        -1.155111
 H         4.417400         0.980425        -0.627944
 H         3.222297         1.903206         1.591674
