19
Iteration:  1260
 C         4.573558        -1.661370         0.823495
 C         3.329040        -0.850207         0.476610
 O         2.031515        -1.472257         0.052568
 C         1.460369        -0.196266         0.114910
 C         0.008169         0.054444         0.119885
 C         2.070388         0.688460        -1.139316
 C         3.431059         0.504899        -0.347567
 C         2.643733         0.359970         0.959037
 O         2.639758         1.085708         2.135442
 H         4.419551        -1.969990         1.905939
 H         4.642472        -2.427012         0.057880
 H         5.416126        -0.945318         0.738550
 H        -0.454350        -0.635289         0.892173
 H        -0.279945         1.136063         0.380668
 H        -0.494680        -0.386897        -0.792043
 H         1.905533         0.252566        -2.173619
 H         1.715316         1.689985        -1.099477
 H         4.415596         1.058024        -0.491890
 H         2.541854         2.038041         1.927440
