19
Iteration:  2372
 C         4.407660        -1.577464         0.963171
 C         3.186175        -0.840468         0.542080
 O         1.909314        -1.373056         0.457853
 C         1.374699        -0.151289         0.108698
 C        -0.153186         0.173124         0.432862
 C         1.920476         0.173942        -1.250931
 C         3.388096         0.244897        -0.655158
 C         2.831652         0.569941         0.741138
 O         3.141230         1.390193         1.777461
 H         4.512179        -1.578218         2.027176
 H         4.479318        -2.638939         0.693979
 H         5.337304        -1.171241         0.631519
 H        -0.650745        -0.353558         1.310287
 H        -0.177861         1.291379         0.521923
 H        -0.559909        -0.171137        -0.536529
 H         1.762603        -0.623489        -1.994392
 H         1.560188         1.126259        -1.634014
 H         4.364204         0.225042        -1.154218
 H         3.861773         0.957390         2.220844
