19
Iteration:  3206
 C         4.395180        -1.569437         1.027467
 C         3.199460        -0.840864         0.614795
 O         1.909080        -1.546215         0.388919
 C         1.457377        -0.062379         0.113376
 C         0.051717         0.334512         0.501752
 C         2.032438         0.120632        -1.288656
 C         3.381243         0.164870        -0.643795
 C         2.758363         0.506761         0.707607
 O         2.883754         1.405778         1.734604
 H         4.712491        -0.877745         1.802465
 H         4.385004        -2.421581         1.642813
 H         4.980479        -1.636487         0.123954
 H        -0.406551        -0.360815         1.192537
 H         0.070291         1.311602         1.068783
 H        -0.549868         0.501968        -0.469735
 H         1.769402        -0.725899        -1.945212
 H         1.751928         0.984225        -1.866787
 H         4.373667         0.121875        -0.925726
 H         3.677305         1.935788         1.442403
