19
Iteration:  1528
 C         4.451536        -1.795741         1.009585
 C         3.306961        -0.846181         0.468508
 O         2.096716        -1.511154         0.022053
 C         1.470896        -0.171879        -0.039947
 C         0.075641         0.032474         0.469843
 C         2.067053         0.601899        -1.174724
 C         3.427319         0.509667        -0.441924
 C         2.696093         0.468294         0.847932
 O         2.569462         1.241015         1.970054
 H         4.782924        -1.445085         2.009377
 H         4.085400        -2.783003         0.942278
 H         5.227317        -1.718445         0.259976
 H        -0.024099         0.140181         1.570656
 H        -0.403384         0.939729         0.011088
 H        -0.600690        -0.756081         0.084327
 H         1.893907         0.278886        -2.191532
 H         1.645999         1.598729        -1.025390
 H         4.385282         0.933187        -0.848756
 H         3.163750         1.982496         2.067713
