19
Iteration:  1174charge 0 multiplicity 1
 C         4.365543        -1.615302         1.092367
 C         3.262431        -0.893818         0.336400
 O         2.061055        -1.439288        -0.142288
 C         1.504612        -0.114170        -0.013582
 C        -0.080633        -0.190546         0.257201
 C         2.130084         0.834587        -1.130500
 C         3.430476         0.617993        -0.381498
 C         2.663287         0.355537         0.940797
 O         2.765635         0.996940         2.115672
 H         4.012539        -1.766311         2.095610
 H         4.658036        -2.571156         0.731437
 H         5.324831        -1.175288         1.264880
 H        -0.193492         0.251552         1.260709
 H        -0.673436         0.516522        -0.319959
 H        -0.477578        -1.212855         0.216343
 H         1.975711         0.677840        -2.198454
 H         1.999742         1.834914        -0.831291
 H         4.356252         1.213489        -0.487436
 H         3.243874         1.802883         1.898958
