19
Iteration:  4101
 C         4.436383        -1.654498         0.887413
 C         3.232490        -0.860537         0.447508
 O         1.981247        -1.413136         0.181094
 C         1.386984         0.041376         0.042376
 C        -0.047156        -0.003726         0.358219
 C         2.163482         0.354631        -1.290038
 C         3.362430         0.368012        -0.477681
 C         2.692558         0.467881         0.914656
 O         2.890103         1.257987         2.062255
 H         4.989010        -1.932984         0.037343
 H         5.033110        -1.062110         1.644947
 H         4.088339        -2.514642         1.444544
 H        -0.069302        -0.111678         1.455638
 H        -0.523669         0.962191         0.200109
 H        -0.665536        -0.732773        -0.179846
 H         2.014712        -0.433147        -2.076753
 H         1.861103         1.323439        -1.684266
 H         4.394466         0.664382        -0.715157
 H         2.974822         2.200219         1.825411
