19
Iteration:  3969
 C         4.215497        -1.709053         1.151335
 C         3.314173        -0.824653         0.410088
 O         2.073484        -1.490047        -0.137204
 C         1.453075        -0.020160         0.010592
 C         0.102419        -0.050543         0.551225
 C         2.066768         0.609227        -1.209216
 C         3.478862         0.434282        -0.418355
 C         2.698572         0.411630         0.841507
 O         2.735779         1.213778         1.901622
 H         3.721415        -2.523255         1.675482
 H         4.916561        -2.217674         0.442571
 H         4.829062        -1.202234         1.907798
 H         0.268743         0.441727         1.451623
 H        -0.776911         0.261851         0.096577
 H         0.069151        -1.089091         0.870873
 H         1.493198         0.186782        -2.073483
 H         1.946207         1.689043        -1.140029
 H         4.356543         0.977124        -0.747169
 H         3.040847         2.121641         1.651485
