19
Iteration:  3270charge 0 multiplicity 1
 C         4.136058        -1.855352         1.014298
 C         3.333115        -0.745658         0.526550
 O         2.007523        -1.388330         0.412208
 C         1.430493        -0.160600         0.159750
 C        -0.034345        -0.042436         0.381501
 C         2.036498         0.211402        -1.192510
 C         3.414172         0.263206        -0.567939
 C         2.768576         0.593668         0.745214
 O         3.072624         1.626468         1.717209
 H         5.078270        -1.499798         1.543696
 H         3.547984        -2.513317         1.726957
 H         4.474715        -2.493853         0.143697
 H        -0.414276        -0.827400         1.038086
 H        -0.303236         0.964065         0.889592
 H        -0.638070         0.018725        -0.614254
 H         1.760239        -0.599460        -1.934816
 H         1.762135         1.240015        -1.490738
 H         4.245512         0.699768        -1.020632
 H         2.968750         2.480580         1.281399
