19
Iteration:  2133charge 0 multiplicity 1
 C         4.185137        -1.748639         1.155293
 C         3.278103        -0.819127         0.473091
 O         2.045748        -1.386693         0.303835
 C         1.386096        -0.001750         0.053091
 C        -0.008400         0.011364         0.591252
 C         1.955547         0.230342        -1.312144
 C         3.301692         0.364407        -0.686368
 C         2.817243         0.549921         0.711850
 O         3.126347         1.392661         1.805092
 H         5.026217        -1.437817         1.797223
 H         3.726579        -2.542431         1.836877
 H         4.700785        -2.240973         0.284177
 H        -0.213922        -0.911253         1.108130
 H        -0.250612         0.788716         1.305572
 H        -0.703471         0.030521        -0.219908
 H         1.698985        -0.534930        -2.077663
 H         1.558199         1.215866        -1.661433
 H         4.288679         0.633379        -1.043402
 H         3.206650         2.313137         1.521469
