19
Iteration:  4724
 C         4.413856        -1.567423         0.957017
 C         3.294156        -0.772011         0.428535
 O         2.018317        -1.414161        -0.025735
 C         1.450277        -0.100620         0.080532
 C        -0.017485         0.099538         0.344932
 C         2.109883         0.443750        -1.271515
 C         3.470654         0.440155        -0.515316
 C         2.669028         0.480899         0.944112
 O         2.712494         1.075709         2.165694
 H         4.903877        -2.311858         0.290728
 H         5.237596        -0.817473         0.964987
 H         4.251689        -2.150223         1.896705
 H        -0.741218        -0.588474        -0.202829
 H        -0.289422        -0.132392         1.475635
 H        -0.238653         1.056029        -0.054259
 H         1.850903        -0.084566        -2.220611
 H         1.878952         1.503625        -1.496667
 H         4.429415         0.640990        -0.887550
 H         3.100047         0.449181         2.804071
