19
Iteration:  2128
 C         4.202996        -1.732351         1.119236
 C         3.306439        -0.787800         0.500123
 O         2.056413        -1.390319         0.288733
 C         1.411787        -0.053955         0.096160
 C        -0.013973         0.055445         0.583323
 C         1.909262         0.221603        -1.358044
 C         3.316806         0.323229        -0.716894
 C         2.826258         0.520120         0.741402
 O         3.101403         1.405680         1.845978
 H         5.054202        -1.433279         1.727956
 H         3.620121        -2.342818         1.761132
 H         4.581188        -2.461681         0.393630
 H        -0.250464        -0.903788         1.111900
 H        -0.274927         0.879425         1.292691
 H        -0.671355         0.185963        -0.338949
 H         1.681964        -0.545752        -2.090945
 H         1.493279         1.167797        -1.669454
 H         4.288813         0.767592        -0.995619
 H         3.215730         2.331032         1.496800
