19
Iteration:  2613charge 0 multiplicity 1
 C         4.384618        -1.635932         1.141683
 C         3.305402        -0.829953         0.443034
 O         1.924068        -1.489767         0.353374
 C         1.439053        -0.175151         0.093944
 C         0.034469         0.193504         0.712169
 C         1.927738         0.227536        -1.376030
 C         3.363167         0.250812        -0.708005
 C         2.811315         0.521448         0.730169
 O         2.950837         1.500149         1.636287
 H         4.436197        -1.306281         2.182960
 H         4.093326        -2.747985         1.044132
 H         5.291348        -1.559802         0.563223
 H         0.313417         0.146293         1.807418
 H        -0.230256         1.191277         0.331054
 H        -0.777100        -0.561103         0.519983
 H         1.586656        -0.444857        -2.196021
 H         1.560920         1.283208        -1.545762
 H         4.337672         0.412035        -1.126047
 H         2.968581         1.239567         2.556750
