19
Iteration:  1677charge 0 multiplicity 1
 C         4.381776        -1.726146         1.004475
 C         3.247408        -0.809799         0.446489
 O         1.973119        -1.434616         0.145604
 C         1.444738         0.055841         0.003707
 C         0.031331        -0.153580         0.583419
 C         2.158842         0.426249        -1.303457
 C         3.466287         0.380905        -0.546623
 C         2.724665         0.547820         0.816779
 O         2.755617         1.379062         1.943388
 H         4.080238        -2.763699         0.792945
 H         5.355500        -1.656360         0.351366
 H         4.618749        -1.542114         2.085487
 H        -0.504902        -0.614147        -0.282095
 H         0.279395        -0.839462         1.454249
 H        -0.450367         0.775396         0.993918
 H         2.123771        -0.288715        -2.171640
 H         1.751179         1.418034        -1.697213
 H         4.517696         0.523331        -0.807665
 H         1.874163         1.672595         2.225021
