19
Iteration:  4597
 C         4.511167        -1.639589         0.763587
 C         3.252524        -0.821856         0.527132
 O         1.986197        -1.477940         0.199864
 C         1.415980        -0.108486         0.069982
 C        -0.021873         0.102753         0.129285
 C         2.073629         0.396016        -1.203701
 C         3.391546         0.437280        -0.390614
 C         2.632356         0.447525         0.967388
 O         2.852886         1.301112         2.064673
 H         4.813916        -1.890140        -0.291561
 H         5.211353        -0.991830         1.233335
 H         4.591747        -2.399058         1.583736
 H        -0.587336        -0.121470        -0.751246
 H        -0.391650        -0.629164         0.857100
 H        -0.243500         1.048515         0.595346
 H         1.927696        -0.439951        -1.845263
 H         1.804745         1.391201        -1.668314
 H         4.335113         0.798115        -0.704494
 H         2.811627         0.743184         2.838103
