19
Iteration:  2875charge 0 multiplicity 1
 C         4.423626        -1.762513         0.886507
 C         3.313139        -0.898027         0.522551
 O         2.034496        -1.498738         0.512285
 C         1.391039        -0.063909         0.242144
 C        -0.165899         0.192194         0.470403
 C         1.980888         0.132821        -1.257971
 C         3.392901         0.254138        -0.644453
 C         2.882554         0.547422         0.767409
 O         2.964963         1.596825         1.725340
 H         5.356962        -1.209510         1.096947
 H         4.128792        -2.339450         1.798938
 H         4.575958        -2.342881        -0.037432
 H        -0.526749         0.491384         1.480243
 H        -0.517260         0.861591        -0.279494
 H        -0.743935        -0.695521         0.290039
 H         1.864454        -0.619658        -2.087643
 H         1.562892         1.088645        -1.638459
 H         4.199936         0.532778        -1.283352
 H         2.268821         2.281864         1.462165
