19
Iteration:  4701charge 0 multiplicity 1
 C         4.355253        -1.691029         1.057243
 C         3.299442        -0.854771         0.373419
 O         2.021524        -1.485511         0.004014
 C         1.441514        -0.038714        -0.009213
 C         0.047659        -0.013630         0.453768
 C         2.110208         0.697901        -1.229232
 C         3.461979         0.524940        -0.462583
 C         2.649432         0.356474         0.897227
 O         2.750159         1.197380         1.972398
 H         4.967276        -2.220425         0.311017
 H         5.139251        -1.015890         1.490413
 H         3.918038        -2.498788         1.637796
 H        -0.473283        -0.998002         0.207154
 H         0.093203        -0.074717         1.581229
 H        -0.603149         0.744400         0.026208
 H         2.189046         0.101007        -2.148227
 H         1.683803         1.626375        -1.520053
 H         4.339520         1.072863        -0.491308
 H         2.777199         0.543033         2.733424
