19
Iteration:  3168charge 0 multiplicity 1
 C         4.242410        -1.633111         1.334218
 C         3.352481        -0.805788         0.392593
 O         1.950458        -1.482097         0.314543
 C         1.441047        -0.111865         0.156389
 C         0.069441         0.235369         0.658700
 C         1.972331         0.199767        -1.333719
 C         3.437238         0.274024        -0.755362
 C         2.744408         0.545102         0.629693
 O         2.897350         1.304890         1.677589
 H         5.118650        -0.986883         1.637160
 H         3.643361        -2.005769         2.235706
 H         4.774046        -2.519254         0.879249
 H        -0.118160        -0.139543         1.720940
 H         0.091699         1.334909         0.748603
 H        -0.687761        -0.123745        -0.008875
 H         1.726559        -0.576561        -2.094743
 H         1.690191         1.220177        -1.776316
 H         4.399080         0.511202        -1.392590
 H         3.449559         2.113357         1.606571
