19
Iteration:  1579charge 0 multiplicity 1
 C         4.462310        -1.600875         0.909690
 C         3.208963        -0.818376         0.548157
 O         1.952974        -1.397026         0.207732
 C         1.465143        -0.087342         0.027052
 C        -0.049497        -0.104099         0.253497
 C         2.172780         0.468535        -1.316663
 C         3.413507         0.446430        -0.500332
 C         2.664829         0.526510         0.847563
 O         2.792979         1.184768         2.149827
 H         4.684514        -1.554515         1.982789
 H         4.177740        -2.609674         0.391913
 H         5.309664        -1.263695         0.276524
 H        -0.247957        -0.842990         1.051582
 H        -0.242787         0.859872         0.804288
 H        -0.652445         0.044589        -0.674450
 H         2.049871        -0.195096        -2.205495
 H         1.524026         1.389783        -1.567644
 H         4.400284         0.849656        -0.854398
 H         3.763540         1.189582         2.286318
