19
Iteration:  2574
 C         4.462887        -1.516192         0.986218
 C         3.281012        -0.863576         0.489194
 O         1.885904        -1.437422         0.488147
 C         1.407943        -0.161465         0.278345
 C        -0.079570         0.258757         0.432605
 C         1.914658         0.145848        -1.294256
 C         3.300551         0.250469        -0.729124
 C         2.794649         0.496494         0.714888
 O         3.102790         1.408457         1.693280
 H         4.425294        -1.863706         2.060555
 H         4.661807        -2.449405         0.559168
 H         5.355987        -0.840543         1.006655
 H        -0.353143        -0.157419         1.423786
 H        -0.227831         1.349268         0.546427
 H        -0.867936        -0.078681        -0.271013
 H         1.781526        -0.800867        -1.842479
 H         1.528407         1.000669        -1.816653
 H         4.310695         0.489216        -1.186673
 H         3.347920         0.936404         2.509714
