19
Iteration:  4267
 C         4.475682        -1.712533         0.881165
 C         3.255510        -0.897448         0.505668
 O         1.974815        -1.455513         0.308784
 C         1.476080        -0.105691         0.019319
 C        -0.078116         0.053295         0.276467
 C         2.049409         0.398122        -1.311333
 C         3.408146         0.512524        -0.492766
 C         2.742640         0.485380         0.878306
 O         2.868821         1.284964         2.059817
 H         4.280422        -2.713088         0.573623
 H         5.366538        -1.420808         0.349216
 H         4.818490        -1.651433         1.925062
 H        -0.529252        -0.871848        -0.245338
 H        -0.461339         0.090525         1.369340
 H        -0.400843         0.968106        -0.192482
 H         2.103905        -0.108337        -2.260266
 H         1.608003         1.406628        -1.470597
 H         4.394823         0.768565        -0.738509
 H         2.138632         1.894646         2.150727
