19
Iteration:   271
 C         4.395345        -1.839494         0.663859
 C         3.370689        -0.775899         0.461437
 O         2.137445        -1.395491        -0.058890
 C         1.530607        -0.143369        -0.040743
 C         0.058885         0.174076         0.192477
 C         2.203862         0.742291        -1.101198
 C         3.500615         0.664959        -0.233369
 C         2.623257         0.415313         0.963374
 O         2.467394         0.786504         2.286893
 H         3.891949        -2.587423         1.308405
 H         4.736345        -2.297937        -0.296536
 H         5.306847        -1.622761         1.284860
 H        -0.105503         0.971286         0.943173
 H        -0.515542         0.457325        -0.778935
 H        -0.696963        -0.642635         0.494876
 H         2.111537         0.433865        -2.189902
 H         1.680092         1.612483        -1.023477
 H         4.391685         1.278402        -0.180803
 H         2.092228         1.711370         2.355253
