19
Iteration:   384charge 0 multiplicity 1
 C         4.183776        -1.850808         0.819148
 C         3.334281        -0.754740         0.382220
 O         2.157474        -1.323810        -0.118580
 C         1.508311        -0.000757        -0.009628
 C        -0.045525        -0.079555         0.151035
 C         2.191702         0.865410        -1.187144
 C         3.446202         0.681914        -0.298312
 C         2.708417         0.414940         1.023030
 O         2.739912         0.753432         2.369390
 H         3.465823        -2.540412         1.364667
 H         4.464409        -2.212557        -0.173532
 H         5.077962        -1.660232         1.415413
 H        -0.417767         0.811072        -0.350938
 H        -0.258972        -1.058260        -0.348570
 H        -0.300951        -0.119162         1.189719
 H         2.105105         0.390790        -2.134056
 H         1.976335         1.969007        -1.316433
 H         4.388949         1.295267        -0.283098
 H         1.991356         1.366523         2.495436
