19
Iteration:  4534
 C         4.306487        -1.607553         1.160848
 C         3.318195        -0.864763         0.379223
 O         2.057949        -1.486483         0.027031
 C         1.461823        -0.119965         0.045162
 C         0.069233        -0.001370         0.497604
 C         2.054701         0.583909        -1.294856
 C         3.415390         0.484564        -0.542884
 C         2.699060         0.462258         0.811418
 O         2.775308         1.188420         1.965576
 H         4.405193        -2.649728         0.809793
 H         5.270585        -1.203506         0.745097
 H         4.153443        -1.478080         2.233171
 H        -0.706104        -0.314332        -0.255710
 H        -0.077258        -0.633770         1.374685
 H        -0.059530         1.161403         0.748803
 H         1.851052         0.031235        -2.213930
 H         1.777702         1.608900        -1.489349
 H         4.408074         0.814534        -0.790255
 H         2.514145         0.626264         2.695665
