19
Iteration:  1382
 C         4.401974        -1.558188         0.973884
 C         3.216299        -0.853429         0.470681
 O         2.019728        -1.485589        -0.012227
 C         1.434620        -0.162442        -0.065218
 C        -0.097323        -0.113117         0.325630
 C         2.210208         0.656927        -1.257231
 C         3.395022         0.538428        -0.299470
 C         2.619741         0.409046         0.945182
 O         2.925570         1.120441         2.075052
 H         4.816351        -2.093445         0.123166
 H         4.868479        -0.567009         1.350745
 H         4.137579        -2.229219         1.833472
 H        -0.565927        -1.122995         0.659185
 H        -0.420113         0.546821         1.193068
 H        -0.711397         0.008808        -0.657546
 H         2.361080         0.043776        -2.153299
 H         1.993039         1.745370        -1.440576
 H         4.374452         0.885660        -0.481340
 H         2.625325         2.046598         1.876260
