19
Iteration:   316charge 0 multiplicity 1
 C         4.414197        -1.626685         0.844288
 C         3.168391        -0.888168         0.450013
 O         1.935030        -1.324011        -0.277233
 C         1.426624         0.005660        -0.075245
 C        -0.081406        -0.089391         0.090406
 C         2.333920         0.851797        -1.028737
 C         3.491306         0.484104        -0.184536
 C         2.601923         0.311154         1.036059
 O         2.738396         0.846679         2.319469
 H         4.429348        -2.438619         1.641270
 H         4.785454        -1.946885        -0.166340
 H         5.116670        -0.903746         1.214593
 H        -0.276348         0.818517         0.696730
 H        -0.670117        -0.139792        -0.927571
 H        -0.290448        -1.003751         0.701087
 H         2.456591         0.595811        -2.126201
 H         2.207985         1.894756        -0.988658
 H         4.504583         1.065984        -0.130623
 H         3.452380         1.538884         2.253415
