19
Iteration:  2493charge 0 multiplicity 1
 C         4.238998        -1.887093         1.080943
 C         3.362062        -0.856673         0.527804
 O         2.014945        -1.419569         0.376657
 C         1.452082        -0.158443         0.190562
 C         0.025216         0.023905         0.632654
 C         1.896117         0.357757        -1.231169
 C         3.319227         0.297595        -0.612743
 C         2.764395         0.475542         0.776532
 O         3.038092         1.677971         1.413151
 H         3.584567        -2.617686         1.477460
 H         4.917414        -2.313917         0.322181
 H         4.875343        -1.580067         1.859074
 H        -0.135400        -0.205945         1.739331
 H        -0.057885         1.051375         0.265203
 H        -0.556283        -0.697850        -0.018507
 H         1.560057        -0.142538        -2.148569
 H         1.738504         1.466097        -1.364880
 H         4.195918         0.677840        -1.121994
 H         3.105531         1.649073         2.396811
