19
Iteration:  2942
 C         4.321851        -1.558566         1.150460
 C         3.245839        -0.852275         0.430241
 O         1.922789        -1.369410         0.379921
 C         1.371406        -0.040201         0.112730
 C        -0.108394         0.029798         0.670842
 C         2.011463         0.121305        -1.323385
 C         3.401517         0.192741        -0.716097
 C         2.735480         0.520670         0.696734
 O         3.106661         1.512303         1.650752
 H         4.651216        -0.967533         2.036332
 H         3.859196        -2.478663         1.681016
 H         5.266867        -1.863213         0.652820
 H        -0.018218        -0.570970         1.583658
 H        -0.370637         1.076349         0.701498
 H        -0.863768        -0.418542         0.027498
 H         1.879409        -0.693477        -2.100593
 H         1.738538         1.148503        -1.604071
 H         4.346231         0.523976        -1.066816
 H         4.053938         1.446371         1.759323
