19
Iteration:    63
 C         4.354946        -1.879470         0.758140
 C         3.310464        -0.888294         0.396509
 O         2.113682        -1.448842        -0.201146
 C         1.519468        -0.061405        -0.005941
 C         0.021451         0.101712         0.308869
 C         2.272036         0.827419        -1.024029
 C         3.494034         0.647912        -0.210485
 C         2.700647         0.324087         0.986888
 O         2.435939         1.057122         2.127741
 H         3.929913        -2.623429         1.401659
 H         4.622329        -2.332289        -0.202259
 H         5.373672        -1.479033         1.112175
 H        -0.027511         0.895361         1.064410
 H        -0.516713         0.381055        -0.616674
 H        -0.465949        -0.813351         0.740572
 H         2.276613         0.493839        -2.084183
 H         1.872652         1.938984        -0.811172
 H         4.566636         0.931340        -0.380560
 H         2.259249         0.449826         2.853459
