19
Iteration:  3630charge 0 multiplicity 1
 C         4.235774        -1.901088         1.041135
 C         3.264545        -0.856517         0.467342
 O         2.011575        -1.401843        -0.057201
 C         1.455917        -0.012315         0.056950
 C         0.026521        -0.102936         0.421231
 C         2.057366         0.604666        -1.183870
 C         3.427956         0.553984        -0.479524
 C         2.718210         0.474756         0.890438
 O         2.932051         1.227986         2.008900
 H         5.095923        -1.291986         1.383270
 H         3.702870        -2.070533         1.937853
 H         4.481653        -2.660289         0.310615
 H        -0.080067         0.239453         1.437363
 H        -0.749726         0.424128        -0.226978
 H        -0.074474        -1.264892         0.287703
 H         1.933450         0.106734        -2.186673
 H         1.778064         1.627358        -1.385508
 H         4.416538         0.804930        -0.682270
 H         2.932696         2.179975         1.758891
