19
Iteration:  2331
 C         4.210446        -1.746187         1.093439
 C         3.205394        -0.871700         0.486420
 O         1.901048        -1.376168         0.303613
 C         1.411259        -0.054512         0.161376
 C         0.000453        -0.043998         0.601677
 C         1.987979         0.291208        -1.268538
 C         3.382747         0.286638        -0.584016
 C         2.827681         0.571634         0.719307
 O         3.166157         1.532867         1.563881
 H         3.996515        -1.990135         2.212029
 H         4.597926        -2.599596         0.392584
 H         5.135409        -1.115282         1.168414
 H        -0.187492        -0.713100         1.498573
 H        -0.226459         1.009366         0.865391
 H        -0.832738        -0.253726        -0.113349
 H         1.628017        -0.522995        -1.911610
 H         1.774729         1.325620        -1.682679
 H         4.416493         0.376906        -0.941729
 H         3.083440         1.232912         2.531342
