19
Iteration:  1653charge 0 multiplicity 1
 C         4.299496        -1.741553         1.027938
 C         3.313695        -0.782726         0.457848
 O         2.089590        -1.467895         0.175375
 C         1.418337        -0.146003         0.038583
 C        -0.028458        -0.087469         0.496910
 C         2.082314         0.446693        -1.282012
 C         3.385388         0.551315        -0.504133
 C         2.694979         0.471751         0.819241
 O         2.885737         1.335905         1.887087
 H         3.864293        -2.735486         1.156266
 H         5.140788        -1.905626         0.206301
 H         4.758748        -1.325603         1.952137
 H        -0.514925        -0.882565        -0.108323
 H        -0.107650        -0.025962         1.611499
 H        -0.303347         0.906022         0.037784
 H         2.197645        -0.136319        -2.230536
 H         1.744534         1.467744        -1.630989
 H         4.328837         1.150679        -0.583100
 H         2.069530         1.495836         2.363571
