19
Iteration:  3262
 C         4.210382        -1.839145         0.997596
 C         3.315006        -0.763135         0.621555
 O         1.941193        -1.452073         0.438387
 C         1.446065        -0.154791         0.169889
 C        -0.044457         0.028465         0.346344
 C         2.016978         0.196570        -1.159736
 C         3.350969         0.295443        -0.566998
 C         2.866164         0.617362         0.790827
 O         3.034694         1.583288         1.638236
 H         5.143247        -1.465582         1.451199
 H         3.724719        -2.675358         1.445512
 H         4.690233        -2.210696         0.061674
 H        -0.565192        -0.806198         0.887504
 H        -0.136463         0.994527         0.873331
 H        -0.548240         0.094227        -0.676514
 H         1.920746        -0.440244        -2.056192
 H         1.799981         1.256898        -1.365532
 H         4.322923         0.639919        -0.959636
 H         2.872960         2.390381         1.159435
