19
Iteration:  4086
 C         4.498658        -1.591299         0.837360
 C         3.192732        -0.804630         0.604753
 O         1.929951        -1.481028         0.219622
 C         1.446520        -0.106398         0.081461
 C        -0.040507         0.142029         0.285510
 C         2.048899         0.390214        -1.238172
 C         3.431408         0.375099        -0.422655
 C         2.672588         0.509223         0.862563
 O         2.910309         1.147958         2.014841
 H         4.875404        -1.941028        -0.183775
 H         5.195462        -0.894126         1.135402
 H         4.372501        -2.387585         1.581244
 H        -0.578116         0.097174         1.251037
 H        -0.501159         0.959097        -0.335166
 H        -0.270701        -0.888104        -0.275438
 H         1.974425        -0.336005        -2.020934
 H         1.801265         1.376722        -1.628114
 H         4.398352         0.693499        -0.743193
 H         3.047529         2.111117         1.782337
