19
Iteration:  4722
 C         4.408440        -1.585766         0.955174
 C         3.294566        -0.797039         0.427295
 O         2.026310        -1.418317        -0.035505
 C         1.451242        -0.075467         0.071636
 C        -0.010379         0.087125         0.363128
 C         2.108355         0.449523        -1.276866
 C         3.447534         0.447283        -0.493660
 C         2.674743         0.485634         0.926207
 O         2.714917         1.081117         2.155357
 H         4.933703        -2.283523         0.323883
 H         5.289434        -0.814606         1.089058
 H         4.204357        -2.108355         1.898909
 H        -0.705712        -0.637000        -0.156731
 H        -0.233983        -0.108726         1.413972
 H        -0.272922         1.060359        -0.070071
 H         1.808491        -0.045115        -2.188414
 H         1.917490         1.466061        -1.444724
 H         4.399111         0.664131        -0.859072
 H         3.066968         0.506576         2.827546
