19
Iteration:  1549
 C         4.413899        -1.752023         0.953439
 C         3.446528        -0.829990         0.344786
 O         2.152038        -1.460971         0.074444
 C         1.473078        -0.071063         0.182517
 C         0.018224         0.061578         0.324725
 C         2.038747         0.468221        -1.245502
 C         3.322433         0.536181        -0.447726
 C         2.703813         0.402670         0.882051
 O         2.616177         1.226213         2.048614
 H         4.395059        -1.461601         2.027027
 H         3.803352        -2.645899         0.833813
 H         5.383867        -1.877161         0.487597
 H        -0.394470        -0.135444         1.356477
 H        -0.280685         1.153001         0.232514
 H        -0.627212        -0.510544        -0.394639
 H         2.005869        -0.282898        -2.015172
 H         1.463179         1.365731        -1.467991
 H         4.204348         1.191605        -0.711335
 H         3.522135         1.609137         2.180444
