19
Iteration:  1636
 C         4.431548        -1.692879         1.013462
 C         3.347296        -0.834494         0.470826
 O         2.110801        -1.529333         0.109344
 C         1.468656        -0.149982         0.066241
 C        -0.047616         0.037967         0.283443
 C         1.976341         0.472996        -1.230232
 C         3.318718         0.468324        -0.445863
 C         2.620980         0.457964         0.900969
 O         2.927781         1.398475         1.916404
 H         3.812744        -2.479385         1.483009
 H         5.082606        -2.276686         0.413292
 H         4.996911        -1.182015         1.796072
 H        -0.447288        -0.981764         0.146687
 H        -0.012889         0.291334         1.355816
 H        -0.572334         0.773555        -0.317331
 H         1.624254        -0.155365        -2.053576
 H         1.625307         1.508318        -1.333932
 H         4.218238         0.899215        -0.855784
 H         2.440607         1.022938         2.669855
