19
Iteration:  1937
 C         4.347509        -1.578633         0.966993
 C         3.300176        -0.775190         0.444016
 O         2.004520        -1.489933         0.310208
 C         1.403195        -0.172232         0.048866
 C        -0.022091         0.083232         0.357098
 C         1.997599         0.372638        -1.227105
 C         3.341217         0.375839        -0.602618
 C         2.700133         0.521542         0.854044
 O         3.024899         1.182946         1.954982
 H         3.905400        -2.377708         1.556022
 H         5.159011        -2.018641         0.287459
 H         4.948870        -1.003564         1.672535
 H        -0.252206         0.351097         1.423123
 H        -0.407429         1.055130        -0.120481
 H        -0.885037        -0.604253         0.110882
 H         1.873034        -0.251789        -2.139615
 H         1.586117         1.385324        -1.457708
 H         4.294273         0.818308        -0.886892
 H         3.265755         2.060043         1.650402
