19
Iteration:  2838charge 0 multiplicity 1
 C         4.322168        -1.674979         1.001053
 C         3.220173        -0.861669         0.502125
 O         1.931569        -1.482349         0.432377
 C         1.451994        -0.117604         0.052180
 C         0.063916         0.075045         0.757266
 C         2.102377         0.225724        -1.400692
 C         3.359057         0.250768        -0.600347
 C         2.755805         0.540007         0.715216
 O         2.847556         1.559928         1.674699
 H         5.237499        -1.379368         0.535118
 H         4.482400        -1.748836         2.049095
 H         4.136753        -2.647763         0.585596
 H         0.186213         0.197793         1.831475
 H        -0.542115         0.976281         0.419541
 H        -0.424743        -0.881315         0.457951
 H         1.936510        -0.451483        -2.221707
 H         1.901937         1.256582        -1.712526
 H         4.385203         0.635388        -0.926902
 H         3.685539         1.998458         1.377362
