19
Iteration:  2709charge 0 multiplicity 1
 C         4.465401        -1.733133         0.928145
 C         3.271394        -0.841413         0.544493
 O         1.947033        -1.472092         0.547563
 C         1.396108        -0.129253         0.174945
 C        -0.112868         0.047297         0.358428
 C         1.895008         0.224112        -1.208655
 C         3.343204         0.219236        -0.594438
 C         2.754132         0.562283         0.800912
 O         3.105936         1.659562         1.612104
 H         5.342095        -1.085273         0.775117
 H         4.526800        -2.202637         1.966783
 H         4.497065        -2.455416         0.099172
 H        -0.425327        -0.352063         1.282620
 H        -0.297353         1.113189         0.311091
 H        -0.731527        -0.387649        -0.411628
 H         1.639019        -0.403028        -2.058404
 H         1.782553         1.282925        -1.485511
 H         4.258279         0.592106        -1.071816
 H         3.182023         1.159797         2.426520
