19
Iteration:  3240
 C         4.511015        -1.800361         0.927153
 C         3.262562        -0.990305         0.649565
 O         1.878793        -1.474452         0.556629
 C         1.429916        -0.056629         0.094511
 C        -0.079479         0.222106         0.349978
 C         2.044056         0.264602        -1.311829
 C         3.323239         0.202291        -0.551095
 C         2.695195         0.468842         0.803033
 O         2.991910         1.621346         1.700548
 H         5.167203        -1.105089         1.472972
 H         4.403705        -2.799412         1.285036
 H         5.368879        -1.912795         0.214581
 H        -0.520327        -0.690763         0.806720
 H        -0.190340         1.142402         0.952785
 H        -0.680903         0.284784        -0.625425
 H         1.818115        -0.587198        -1.972022
 H         1.820428         1.302024        -1.583558
 H         4.372102         0.393144        -0.745784
 H         3.033041         2.338687         0.987443
