19
Iteration:  4304charge 0 multiplicity 1
 C         4.345143        -1.706216         1.121465
 C         3.263720        -0.859062         0.431095
 O         2.043804        -1.408758         0.007879
 C         1.391956        -0.027292        -0.008907
 C         0.079238        -0.115223         0.518910
 C         2.045444         0.456504        -1.277998
 C         3.421292         0.367464        -0.482798
 C         2.720912         0.489621         0.851483
 O         2.787587         1.345729         1.967605
 H         4.050604        -2.846933         0.993811
 H         5.266769        -1.553968         0.515881
 H         4.420194        -1.622758         2.227635
 H        -0.534719        -0.384362        -0.292915
 H         0.036222        -0.825163         1.309007
 H        -0.356792         0.874319         0.834650
 H         1.854899        -0.037539        -2.283925
 H         1.808832         1.594320        -1.289751
 H         4.435919         0.861173        -0.710414
 H         3.266379         2.120633         1.673079
