19
Iteration:  3521
 C         4.363463        -1.661106         0.954961
 C         3.263491        -0.829875         0.469956
 O         1.953779        -1.433535         0.204265
 C         1.445361        -0.074472         0.029592
 C        -0.004503         0.133071         0.395886
 C         2.093730         0.353362        -1.316909
 C         3.365882         0.456980        -0.477171
 C         2.653458         0.471629         0.863603
 O         2.957078         1.154122         2.025101
 H         4.204978        -2.253039         1.900640
 H         4.523720        -2.296449         0.082952
 H         5.357437        -1.149295         1.042274
 H        -0.592472        -0.629350        -0.120193
 H        -0.239448         0.066614         1.489908
 H        -0.399148         1.115672        -0.019697
 H         2.203468        -0.314816        -2.202113
 H         1.820249         1.372267        -1.614816
 H         4.404600         0.722843        -0.704762
 H         2.738130         2.074983         1.873298
