19
Iteration:  4779charge 0 multiplicity 1
 C         4.565363        -1.596603         0.805671
 C         3.258274        -0.824947         0.501409
 O         1.956808        -1.511794         0.154525
 C         1.426634        -0.106710         0.024212
 C        -0.033810         0.095420         0.175593
 C         2.130113         0.480450        -1.190150
 C         3.387765         0.570853        -0.448065
 C         2.722446         0.430355         0.957715
 O         2.767610         1.144415         2.098837
 H         4.375472        -2.674968         0.571077
 H         5.519938        -1.138132         0.525474
 H         4.424827        -1.724834         1.941221
 H        -0.480220         0.318149        -0.821675
 H        -0.609514        -0.726233         0.814914
 H        -0.218881         0.880794         0.891151
 H         1.990904        -0.201620        -2.030107
 H         1.786054         1.524662        -1.326287
 H         4.287090         1.034771        -0.896279
 H         2.617594         0.439124         2.791652
