19
Iteration:   411charge 0 multiplicity 1
 C         4.412955        -1.747425         0.754193
 C         3.218054        -0.892624         0.352870
 O         1.955715        -1.336162        -0.181049
 C         1.493213         0.032886        -0.077940
 C        -0.000773        -0.008895         0.252172
 C         2.342488         0.812172        -1.107413
 C         3.490900         0.616384        -0.163427
 C         2.640334         0.422365         0.988758
 O         2.573791         0.759633         2.308463
 H         4.273017        -2.399077         1.599791
 H         4.715031        -2.155582        -0.228996
 H         5.310755        -1.149700         1.002994
 H        -0.506318         0.916949        -0.038666
 H        -0.247465        -1.011881        -0.055220
 H        -0.039291        -0.143403         1.378423
 H         2.418007         0.371930        -2.145326
 H         2.042779         1.826178        -1.258927
 H         4.557536         0.839380        -0.200754
 H         2.590257         1.739901         2.347589
