19
Iteration:   242
 C         4.415369        -1.816384         0.689262
 C         3.286847        -0.857622         0.425187
 O         2.059403        -1.372921        -0.165214
 C         1.579867         0.004955        -0.039080
 C         0.049188         0.062043         0.304916
 C         2.310974         0.812429        -1.134680
 C         3.513867         0.590706        -0.250793
 C         2.674467         0.316896         1.007782
 O         2.427645         0.914452         2.311218
 H         3.997024        -2.594291         1.371449
 H         4.646737        -2.343716        -0.235069
 H         5.180829        -1.396231         1.247728
 H        -0.223718         0.918680         0.916199
 H        -0.526688         0.074136        -0.586221
 H        -0.124350        -0.806527         0.864059
 H         2.312373         0.295827        -2.060290
 H         1.737991         1.878999        -1.378259
 H         4.517120         1.191471        -0.314576
 H         1.489629         1.194185         2.240538
