19
Iteration:   215charge 0 multiplicity 1
 C         4.395145        -1.741087         0.783879
 C         3.202734        -0.913915         0.371804
 O         2.050724        -1.331079        -0.322510
 C         1.516914         0.060675        -0.026750
 C        -0.043487        -0.060713         0.312308
 C         2.377697         0.891053        -1.044703
 C         3.527542         0.487878        -0.176164
 C         2.578129         0.287564         1.027084
 O         2.595870         0.973533         2.225720
 H         4.172501        -2.452102         1.585982
 H         4.736790        -2.312468        -0.092515
 H         5.123720        -0.973538         1.239658
 H        -0.444566         0.964972         0.416115
 H        -0.540419        -0.594666        -0.565990
 H        -0.005621        -0.581757         1.326848
 H         2.368098         0.416721        -2.075197
 H         2.136873         1.858137        -1.110155
 H         4.484041         0.810518        -0.385566
 H         1.730735         0.885025         2.662508
