19
Iteration:  4838
 C         4.264272        -1.939345         0.920775
 C         3.272613        -0.886544         0.411553
 O         2.074230        -1.400972        -0.005919
 C         1.497014        -0.089155         0.046825
 C         0.043130        -0.291047         0.464782
 C         2.164084         0.800908        -1.168178
 C         3.493636         0.506336        -0.414639
 C         2.656537         0.424523         0.907085
 O         2.738885         1.469759         1.905783
 H         4.667996        -2.704631         0.282376
 H         5.092635        -1.498190         1.462370
 H         3.680106        -2.346242         1.713666
 H        -0.570646        -0.317210        -0.440941
 H        -0.053872        -1.207621         0.926501
 H        -0.344534         0.624279         1.008864
 H         1.920740         0.487994        -2.221447
 H         1.710463         1.832460        -1.114950
 H         4.420127         1.026215        -0.400178
 H         2.542800         1.145020         2.782958
