19
Iteration:  1489
 C         4.436640        -1.663302         0.875891
 C         3.236317        -0.918671         0.397141
 O         1.901473        -1.366166        -0.066929
 C         1.453254         0.005751         0.050000
 C         0.007117        -0.162965         0.524046
 C         2.304200         0.497565        -1.207678
 C         3.484278         0.450462        -0.309750
 C         2.639307         0.470520         0.860754
 O         2.681977         1.266150         2.015101
 H         5.011403        -1.102299         1.627419
 H         4.232113        -2.577124         1.469540
 H         5.236045        -1.990627         0.159567
 H         0.096010        -0.075834         1.606762
 H        -0.669732         0.531127         0.066733
 H        -0.212470        -1.212203         0.369629
 H         2.357255        -0.086467        -2.174338
 H         1.990771         1.530789        -1.460039
 H         4.454748         0.771145        -0.484015
 H         2.191569         2.101736         1.786577
