19
Iteration:  5000
 C         4.280040        -1.884673         1.037000
 C         3.292447        -0.823060         0.365119
 O         2.052197        -1.365903        -0.087294
 C         1.428843        -0.037066         0.045493
 C         0.023705        -0.235562         0.511237
 C         2.189205         0.702511        -1.235264
 C         3.449372         0.523233        -0.452063
 C         2.662043         0.475213         0.873656
 O         2.787352         1.310621         2.011668
 H         4.023736        -2.925251         0.833680
 H         5.307697        -1.603509         0.787951
 H         4.153470        -1.532824         2.064158
 H        -0.673275        -0.606570        -0.264838
 H        -0.070166        -0.953825         1.283942
 H        -0.379651         0.776323         0.853924
 H         2.110056         0.113420        -2.076113
 H         1.874215         1.697567        -1.558580
 H         4.365218         1.033909        -0.806101
 H         2.717012         0.689565         2.766493
