19
Iteration:  4412
 C         4.537057        -1.546524         0.761705
 C         3.234676        -0.866026         0.585836
 O         1.920689        -1.565258         0.313058
 C         1.385784        -0.215234         0.096386
 C        -0.052704         0.182348         0.258372
 C         2.156889         0.345445        -1.316541
 C         3.287071         0.460248        -0.415133
 C         2.681122         0.444040         0.899693
 O         2.950903         1.312757         1.964244
 H         5.161588        -1.698652        -0.174083
 H         5.165525        -0.945258         1.343306
 H         4.376713        -2.346336         1.473435
 H        -0.642699        -0.216730        -0.577371
 H        -0.423953        -0.426856         1.128696
 H        -0.110927         1.347520         0.320045
 H         2.233351        -0.180034        -2.244061
 H         1.753531         1.365473        -1.604757
 H         4.363917         0.755334        -0.641382
 H         2.183721         1.167474         2.533792
