19
Iteration:  1012charge 0 multiplicity 1
 C         4.373989        -1.593310         1.109585
 C         3.274031        -0.861421         0.371536
 O         2.024180        -1.375423        -0.150948
 C         1.382861        -0.070083        -0.038357
 C        -0.060721        -0.249664         0.277659
 C         2.184184         0.767191        -1.225266
 C         3.450646         0.525305        -0.321348
 C         2.606829         0.419089         0.915819
 O         2.855174         1.014697         2.143807
 H         3.983770        -1.611697         2.162677
 H         4.699268        -2.625667         0.664074
 H         5.193244        -0.846090         1.101543
 H        -0.033620        -1.262743         0.739377
 H        -0.433241         0.306826         1.132402
 H        -0.853258        -0.209562        -0.504849
 H         2.188438         0.351444        -2.260225
 H         1.916725         1.912082        -1.141447
 H         4.372944         1.024982        -0.360204
 H         3.118665         1.917690         1.926030
