19
Iteration:  2564charge 0 multiplicity 1
 C         4.512372        -1.543114         0.971090
 C         3.203227        -0.881663         0.496736
 O         1.848675        -1.431889         0.568353
 C         1.349394        -0.087550         0.186294
 C        -0.075664         0.183296         0.492800
 C         1.976860         0.140481        -1.351208
 C         3.267346         0.248192        -0.679628
 C         2.773889         0.500290         0.710395
 O         3.164013         1.434596         1.705887
 H         4.283883        -1.931621         2.001769
 H         4.913521        -2.222979         0.238490
 H         5.259632        -0.682136         0.967810
 H        -0.556799        -0.255384         1.338931
 H        -0.019131         1.271483         0.520182
 H        -0.506631        -0.104021        -0.444627
 H         1.918581        -0.748431        -2.005473
 H         1.581813         0.985354        -1.894730
 H         4.279349         0.483001        -1.121435
 H         3.317825         0.887540         2.527699
