19
Iteration:  2364
 C         4.413351        -1.626291         0.997438
 C         3.216731        -0.798082         0.528788
 O         1.919311        -1.420877         0.471825
 C         1.308467        -0.083804         0.112246
 C        -0.125264         0.091708         0.448605
 C         1.984209         0.210917        -1.377912
 C         3.327435         0.179603        -0.631714
 C         2.750469         0.609183         0.711469
 O         3.201507         1.429983         1.810877
 H         4.461817        -1.704919         2.147544
 H         4.313878        -2.709153         0.603292
 H         5.245261        -1.019242         0.614809
 H        -0.456471        -0.448717         1.377288
 H        -0.162877         1.168510         0.682556
 H        -0.837618        -0.060863        -0.421702
 H         1.587388        -0.544125        -2.056874
 H         1.873374         1.248735        -1.821002
 H         4.365413         0.330140        -0.981456
 H         3.938768         1.043188         2.297409
