19
Iteration:   425charge 0 multiplicity 1
 C         4.464164        -1.644428         0.691805
 C         3.232269        -0.899587         0.428255
 O         2.031536        -1.369443        -0.249192
 C         1.476173         0.049363        -0.005243
 C         0.001654         0.063077         0.308969
 C         2.330829         0.844947        -1.133162
 C         3.522137         0.474164        -0.225129
 C         2.581263         0.222169         1.064349
 O         2.493974         0.831453         2.303304
 H         4.281643        -2.276367         1.595757
 H         4.795702        -2.301630        -0.142073
 H         5.165635        -0.917848         0.901612
 H        -0.449369         1.014958        -0.062983
 H        -0.567940        -0.641709        -0.350299
 H        -0.158330        -0.014540         1.363899
 H         2.256915         0.275095        -2.207984
 H         2.178306         1.912893        -1.176932
 H         4.552199         0.997612        -0.176141
 H         2.988111         1.665883         2.263020
