19
Iteration:   539
 C         4.315151        -1.793715         0.829323
 C         3.266670        -0.849699         0.392911
 O         2.015365        -1.350972        -0.176051
 C         1.508493        -0.090332        -0.063819
 C         0.011553        -0.109255         0.154588
 C         2.200824         0.874953        -1.027780
 C         3.472837         0.673728        -0.195192
 C         2.631505         0.314111         0.983504
 O         2.691031         1.022112         2.185508
 H         4.086082        -2.673796         1.528861
 H         4.836639        -2.346870         0.005756
 H         5.214685        -1.243428         1.360941
 H        -0.248177        -0.741401         1.074866
 H        -0.401450         0.892938         0.405142
 H        -0.574422        -0.660886        -0.659433
 H         2.250101         0.492422        -2.066548
 H         1.777343         2.009375        -0.879444
 H         4.396398         1.255290        -0.172624
 H         3.234954         0.482492         2.790173
