19
Iteration:  1938charge 0 multiplicity 1
 C         4.354908        -1.574689         0.966091
 C         3.297016        -0.780274         0.447322
 O         2.002464        -1.488022         0.306948
 C         1.394501        -0.160970         0.041450
 C        -0.026871         0.072921         0.362319
 C         1.995877         0.372771        -1.228689
 C         3.353130         0.374983        -0.601335
 C         2.693858         0.517795         0.856686
 O         3.031688         1.183657         1.953702
 H         3.872329        -2.369112         1.533160
 H         5.168199        -2.007804         0.298955
 H         4.926928        -0.991464         1.702215
 H        -0.274524         0.380934         1.440570
 H        -0.405185         1.056493        -0.119970
 H        -0.881241        -0.639937         0.121224
 H         1.886721        -0.227229        -2.138325
 H         1.566754         1.385819        -1.452874
 H         4.341715         0.772363        -0.881854
 H         3.274340         2.067785         1.634289
