19
Iteration:  3066
 C         4.380263        -1.785483         0.921148
 C         3.254895        -0.845133         0.548838
 O         1.997715        -1.389344         0.606611
 C         1.399836        -0.066401         0.176051
 C        -0.099371         0.142495         0.260059
 C         2.000058         0.119300        -1.215240
 C         3.361996         0.263146        -0.674991
 C         2.816821         0.538300         0.821375
 O         2.954496         1.582816         1.776493
 H         5.364836        -1.543452         0.338818
 H         4.723584        -2.045926         1.950739
 H         3.980178        -2.726545         0.367086
 H        -0.510663         0.498465         1.178485
 H        -0.244882         0.842155        -0.576362
 H        -0.571996        -0.809089        -0.079893
 H         1.759288        -0.786157        -1.872018
 H         1.505955         1.012037        -1.711167
 H         4.281024         0.616852        -1.061953
 H         3.868805         1.904624         1.738607
