19
Iteration:  2498
 C         4.291076        -1.869329         1.074817
 C         3.319887        -0.869054         0.476962
 O         1.996773        -1.434747         0.411078
 C         1.431094        -0.121949         0.143524
 C         0.029405         0.016934         0.589050
 C         1.910706         0.364704        -1.180849
 C         3.298513         0.264348        -0.653879
 C         2.779986         0.486120         0.827889
 O         3.067559         1.682263         1.430807
 H         3.575304        -2.698475         1.462180
 H         4.981458        -2.397092         0.410875
 H         4.975354        -1.553055         1.961287
 H        -0.116227        -0.227693         1.600043
 H        -0.129223         1.076270         0.297221
 H        -0.646057        -0.591348        -0.011651
 H         1.662797        -0.296626        -2.045771
 H         1.558797         1.368824        -1.387398
 H         4.113241         0.895336        -1.079783
 H         3.042410         1.654428         2.409973
