19
Iteration:  2308charge 0 multiplicity 1
 C         4.305887        -1.845177         1.130017
 C         3.336059        -0.911971         0.423170
 O         1.981868        -1.509918         0.278006
 C         1.404592        -0.078342         0.135878
 C         0.032921         0.153600         0.656795
 C         1.920221         0.345479        -1.224644
 C         3.369097         0.239272        -0.680033
 C         2.786690         0.451093         0.791390
 O         3.080295         1.641169         1.578575
 H         3.526127        -2.181893         1.903212
 H         4.773972        -2.687316         0.445865
 H         5.098958        -1.366508         1.728499
 H        -0.191789        -0.380250         1.643436
 H        -0.474443         1.137822         0.518453
 H        -0.604793        -0.480289        -0.035183
 H         1.444447        -0.107292        -2.116204
 H         1.683453         1.444819        -1.191802
 H         4.254954         0.680530        -1.114535
 H         2.411757         2.037228         2.137471
