19
Iteration:  1169
 C         4.349219        -1.643623         1.073535
 C         3.307599        -0.840183         0.320688
 O         2.098261        -1.486213        -0.122846
 C         1.483753        -0.097435        -0.016069
 C        -0.046643        -0.128712         0.239780
 C         2.122087         0.844235        -1.049486
 C         3.414959         0.551679        -0.403187
 C         2.680356         0.332377         0.914182
 O         2.721709         1.015293         2.110297
 H         3.946715        -1.878249         2.109670
 H         4.813670        -2.643189         0.726314
 H         5.257917        -0.960551         1.197545
 H        -0.181825         0.165569         1.302867
 H        -0.554591         0.574519        -0.474318
 H        -0.489027        -1.140776         0.293375
 H         1.863326         0.668178        -2.120085
 H         1.766343         1.928797        -0.796452
 H         4.299078         1.156824        -0.480883
 H         3.188178         1.867345         1.908555
