19
Iteration:  2904charge 0 multiplicity 1
 C         4.461566        -1.659374         0.918258
 C         3.249071        -0.879866         0.596476
 O         1.897959        -1.401124         0.561234
 C         1.413833        -0.152465         0.119048
 C         0.036567         0.122211         0.357466
 C         1.875672         0.128019        -1.238345
 C         3.296235         0.238850        -0.550204
 C         2.745086         0.564470         0.771169
 O         3.134868         1.543404         1.598222
 H         5.107923        -1.045473         1.527812
 H         4.267336        -2.548159         1.431335
 H         4.970647        -1.752477        -0.025090
 H        -0.166524         0.262398         1.439863
 H        -0.404716         1.053176        -0.104340
 H        -0.580581        -0.771158         0.031778
 H         1.598808        -0.480405        -2.075253
 H         1.495747         1.131315        -1.477086
 H         4.264009         0.589918        -1.068603
 H         2.758394         1.388583         2.513918
