19
Iteration:  1054charge 0 multiplicity 1
 C         4.463418        -1.745457         0.814744
 C         3.336448        -0.850384         0.394941
 O         2.132244        -1.487148         0.003885
 C         1.446745        -0.128276         0.072220
 C        -0.088650        -0.036490         0.122071
 C         2.119427         0.632834        -1.055280
 C         3.407634         0.560412        -0.307733
 C         2.672057         0.405293         1.002560
 O         2.649163         1.184109         2.147957
 H         4.244237        -2.574656         1.539144
 H         4.987416        -2.220214        -0.038097
 H         5.243558        -1.201735         1.320027
 H        -0.670444        -0.467330         0.906120
 H        -0.144808         1.025288         0.205503
 H        -0.400433        -0.345323        -0.860960
 H         1.939648         0.201659        -2.064502
 H         1.750658         1.654153        -0.969866
 H         4.348388         1.004525        -0.482357
 H         2.678557         2.146975         1.930159
