19
Iteration:  1822
 C         4.333539        -1.746479         1.054719
 C         3.379093        -0.814501         0.385309
 O         2.111665        -1.473407         0.100266
 C         1.430696        -0.101488         0.102041
 C        -0.060111        -0.054967         0.467180
 C         1.986825         0.404093        -1.179060
 C         3.321718         0.398526        -0.563221
 C         2.751663         0.462252         0.899201
 O         2.860942         1.449860         1.880337
 H         5.185108        -1.175994         1.603544
 H         3.720817        -2.152082         1.877767
 H         4.575449        -2.623513         0.359260
 H        -0.651055        -1.011728         0.486371
 H        -0.145518         0.566935         1.372727
 H        -0.491852         0.642308        -0.310950
 H         1.642414        -0.121140        -2.172127
 H         1.635545         1.475583        -1.252242
 H         4.301841         0.768327        -0.952700
 H         3.714954         1.879761         1.730198
