19
Iteration:   515charge 0 multiplicity 1
 C         4.261214        -1.788999         0.705581
 C         3.236123        -0.766704         0.413748
 O         2.083494        -1.299039        -0.213664
 C         1.485782         0.115737        -0.004284
 C        -0.023080        -0.207497         0.237084
 C         2.296731         0.772144        -1.200514
 C         3.495674         0.577957        -0.246641
 C         2.631807         0.393677         1.048790
 O         2.608918         0.993750         2.383164
 H         3.970964        -2.717100         1.273687
 H         4.771221        -2.250039        -0.120313
 H         5.115513        -1.394278         1.339788
 H        -0.370451        -0.419949         1.279887
 H        -0.848047         0.487469        -0.131404
 H        -0.102381        -1.201387        -0.217687
 H         2.213372         0.167694        -2.152186
 H         2.363630         1.939057        -1.284055
 H         4.486565         0.819379        -0.444487
 H         3.465215         0.749280         2.731225
