19
Iteration:  2163
 C         4.281739        -1.621932         1.148711
 C         3.217215        -0.885455         0.434027
 O         1.854119        -1.421841         0.296737
 C         1.360966        -0.045641         0.088310
 C        -0.095950        -0.060429         0.638430
 C         2.061175         0.389468        -1.353658
 C         3.365879         0.188955        -0.596008
 C         2.789626         0.485583         0.785276
 O         3.252639         1.451700         1.706399
 H         4.671747        -1.082011         2.012916
 H         3.865660        -2.621965         1.224123
 H         5.059763        -1.708576         0.349363
 H        -0.245016        -0.934427         1.252427
 H        -0.452763         0.913845         1.078643
 H        -0.733050        -0.282148        -0.247634
 H         1.798342        -0.110251        -2.301049
 H         1.890307         1.437952        -1.367711
 H         4.394802         0.613625        -0.637538
 H         3.048096         2.329190         1.271834
