19
Iteration:  3649charge 0 multiplicity 1
 C         4.154736        -1.845444         1.049910
 C         3.313175        -0.805018         0.418459
 O         2.023302        -1.363533         0.045105
 C         1.507814        -0.029290         0.087182
 C        -0.114067        -0.279171         0.352018
 C         2.086464         0.751727        -1.167137
 C         3.452025         0.417894        -0.467349
 C         2.813825         0.470939         0.885378
 O         2.948460         1.243226         1.955842
 H         5.218255        -1.752117         0.871725
 H         4.013890        -2.065555         2.102055
 H         3.857699        -2.668126         0.378174
 H        -0.450408         0.244014         1.266232
 H        -0.765020         0.142882        -0.423027
 H        -0.381641        -1.271735         0.541691
 H         1.923050         0.498581        -2.208207
 H         1.933506         1.827899        -0.991936
 H         4.306791         1.018624        -0.740273
 H         3.004335         2.210740         1.714326
