19
Iteration:  3687
 C         4.333417        -1.771283         0.867479
 C         3.277081        -0.847720         0.579426
 O         1.966026        -1.416542         0.006479
 C         1.361881        -0.057075         0.126392
 C        -0.071544        -0.087633         0.192564
 C         2.081832         0.564589        -1.191344
 C         3.339814         0.512502        -0.373112
 C         2.757498         0.433777         0.965976
 O         3.016260         1.247055         2.062209
 H         5.063064        -1.764098         0.040870
 H         4.825179        -1.575784         1.844672
 H         3.872021        -2.737861         1.010147
 H        -0.357083         0.834688         0.755763
 H        -0.457152        -0.108420        -0.842147
 H        -0.342471        -1.038526         0.783484
 H         2.022840        -0.067162        -2.118023
 H         1.835155         1.615877        -1.394890
 H         4.395113         0.875764        -0.485918
 H         3.233415         2.150634         1.735252
