19
Iteration:  1705
 C         4.459927        -1.662791         0.997121
 C         3.278807        -0.846047         0.510672
 O         2.006315        -1.476560         0.119319
 C         1.487149        -0.110774         0.062163
 C         0.013176         0.003698         0.526877
 C         2.086448         0.438310        -1.241417
 C         3.420621         0.336419        -0.574838
 C         2.742234         0.485744         0.848318
 O         2.715715         1.376426         1.885566
 H         4.471461        -2.534793         0.348776
 H         5.402614        -1.206142         0.879684
 H         4.369879        -1.958727         2.029862
 H        -0.627966         0.083953        -0.340947
 H        -0.148508        -0.793175         1.212620
 H         0.011682         0.947412         1.058124
 H         1.897413        -0.091369        -2.172688
 H         1.620414         1.390030        -1.307240
 H         4.469212         0.606529        -0.823934
 H         1.888664         1.863100         1.916309
