19
Iteration:  2563
 C         4.516216        -1.547765         0.967987
 C         3.191309        -0.881509         0.493068
 O         1.848120        -1.436201         0.576459
 C         1.348878        -0.076352         0.166038
 C        -0.068333         0.177015         0.497716
 C         1.975399         0.132722        -1.356797
 C         3.270977         0.247997        -0.664596
 C         2.771958         0.509749         0.713769
 O         3.170165         1.436061         1.704428
 H         4.296604        -1.940947         1.989908
 H         4.921148        -2.177479         0.229617
 H         5.235341        -0.687775         0.979321
 H        -0.601476        -0.266213         1.359118
 H        -0.035034         1.270152         0.535798
 H        -0.490734        -0.117468        -0.473680
 H         1.896906        -0.736159        -2.033861
 H         1.591381         0.994934        -1.875951
 H         4.270404         0.481840        -1.114396
 H         3.310831         0.884172         2.537976
