19
Iteration:  4311charge 0 multiplicity 1
 C         4.319564        -1.762223         1.144532
 C         3.253656        -0.877759         0.460640
 O         2.064753        -1.412050        -0.019876
 C         1.449095        -0.049758         0.004269
 C         0.058999        -0.124866         0.516271
 C         2.043657         0.532346        -1.294969
 C         3.357007         0.400497        -0.491708
 C         2.743184         0.487121         0.825825
 O         2.776893         1.362099         1.956906
 H         4.151422        -2.815995         1.068663
 H         5.285860        -1.506200         0.796224
 H         4.443643        -1.431330         2.194006
 H        -0.698339        -0.434879        -0.278226
 H         0.076443        -0.897045         1.384695
 H        -0.122943         0.792362         1.045629
 H         1.853794        -0.076694        -2.148637
 H         1.857039         1.599079        -1.484019
 H         4.288084         0.741089        -0.841292
 H         3.457483         2.006976         1.712081
