19
Iteration:  2589charge 0 multiplicity 1
 C         4.436694        -1.570101         1.084252
 C         3.297692        -0.842707         0.426410
 O         2.032315        -1.524736         0.408273
 C         1.380945        -0.047307         0.142764
 C        -0.022338         0.293449         0.540851
 C         1.838629         0.104000        -1.217189
 C         3.309465         0.200965        -0.693676
 C         2.752450         0.521388         0.680590
 O         3.040722         1.449069         1.710515
 H         4.251011        -1.526784         2.174778
 H         4.418928        -2.669567         0.678774
 H         5.398443        -1.158282         0.691309
 H        -0.257221         0.039398         1.533444
 H        -0.036905         1.354212         0.222002
 H        -0.548228        -0.262525        -0.210250
 H         1.480852        -0.614334        -1.974276
 H         1.504436         1.147388        -1.488466
 H         4.200214         0.537448        -1.190712
 H         3.268066         0.891222         2.520812
