19
Iteration:  1799charge 0 multiplicity 1
 C         4.405492        -1.646360         1.051257
 C         3.234613        -0.857246         0.505857
 O         1.956931        -1.470527         0.253007
 C         1.444212        -0.076787         0.078552
 C        -0.011048        -0.121663         0.409257
 C         1.984844         0.482257        -1.250643
 C         3.366625         0.421603        -0.570602
 C         2.745900         0.552925         0.738572
 O         2.913307         1.300540         1.909268
 H         5.399066        -1.091962         0.849364
 H         4.328444        -1.803170         2.171283
 H         4.244352        -2.666034         0.556526
 H        -0.412935        -1.141015         0.103698
 H        -0.148435         0.163211         1.490871
 H        -0.510218         0.706676        -0.182221
 H         2.062511        -0.023081        -2.276127
 H         1.631555         1.547469        -1.440284
 H         4.329159         0.827110        -0.829118
 H         3.864864         1.583623         1.844034
