19
Iteration:  4365
 C         4.355387        -1.637049         1.100877
 C         3.316468        -0.806663         0.411245
 O         2.046979        -1.464654         0.107243
 C         1.509687        -0.050886         0.046334
 C         0.010322         0.001559         0.527493
 C         2.026745         0.437623        -1.299350
 C         3.429196         0.368651        -0.655741
 C         2.717010         0.473540         0.850308
 O         2.725824         1.331224         1.985893
 H         4.500891        -2.410186         0.368272
 H         5.388779        -1.273556         1.197896
 H         4.032303        -1.976311         2.116112
 H        -0.613764         0.088646        -0.442981
 H        -0.345267        -1.025045         0.974502
 H        -0.147550         0.915767         1.071293
 H         1.800928        -0.159350        -2.165846
 H         1.712931         1.434448        -1.530070
 H         4.403441         0.501005        -1.140839
 H         3.288454         1.045264         2.711738
