19
Iteration:  2732charge 0 multiplicity 1
 C         4.461099        -1.540791         0.874438
 C         3.183903        -0.811452         0.579287
 O         1.880333        -1.432819         0.439005
 C         1.374162        -0.089542         0.164758
 C        -0.110072         0.067507         0.427667
 C         2.004261         0.106038        -1.286252
 C         3.314727         0.158301        -0.551311
 C         2.784524         0.568948         0.823582
 O         3.179798         1.563922         1.683838
 H         5.241442        -0.984219         0.318200
 H         4.717681        -1.407549         2.001486
 H         4.426075        -2.598089         0.544391
 H        -0.415260        -0.611253         1.215537
 H        -0.468153         1.038440         0.673277
 H        -0.770992        -0.172261        -0.377008
 H         2.002996        -0.765090        -1.952834
 H         1.673362         1.049686        -1.802084
 H         4.288318         0.164250        -1.105142
 H         2.961791         1.133411         2.564952
