19
Iteration:  4446charge 0 multiplicity 1
 C         4.493693        -1.705614         0.777844
 C         3.346566        -0.823502         0.505224
 O         1.990251        -1.428858         0.195186
 C         1.455844        -0.092305         0.165579
 C        -0.088730         0.025384         0.219429
 C         2.062600         0.395592        -1.157640
 C         3.333002         0.343128        -0.410085
 C         2.684306         0.480376         0.953449
 O         2.891583         1.413234         1.928594
 H         4.935967        -2.299886        -0.075811
 H         5.257815        -1.187819         1.327156
 H         4.094988        -2.544094         1.312116
 H        -0.395851        -0.886802        -0.301146
 H        -0.500961         0.021360         1.245164
 H        -0.628743         0.908303        -0.327782
 H         2.019183        -0.258731        -2.024956
 H         1.881749         1.472852        -1.355251
 H         4.280952         0.762492        -0.621594
 H         2.269245         1.233872         2.630266
