19
Iteration:  2454charge 0 multiplicity 1
 C         4.316181        -1.805430         1.011041
 C         3.244143        -0.891942         0.443566
 O         1.855964        -1.345133         0.321753
 C         1.451779        -0.060011         0.120923
 C         0.158036         0.063305         0.754709
 C         2.074632         0.214499        -1.398956
 C         3.349886         0.217825        -0.579748
 C         2.749073         0.495357         0.852977
 O         2.945814         1.654545         1.552583
 H         3.923864        -2.426981         1.917711
 H         4.725478        -2.514824         0.277150
 H         5.167360        -1.083335         1.317082
 H         0.313543        -0.022800         1.806551
 H        -0.499592         0.876947         0.555167
 H        -0.522534        -0.769681         0.644597
 H         1.872889        -0.516644        -2.206964
 H         1.976619         1.219647        -1.807354
 H         4.357424         0.409149        -0.962340
 H         2.497404         1.531452         2.430167
