19
Iteration:  3572
 C         4.598291        -1.567456         0.894399
 C         3.261368        -0.883271         0.462778
 O         1.872686        -1.429556         0.212568
 C         1.489013        -0.026045         0.058113
 C         0.080680         0.276688         0.361324
 C         2.009308         0.438327        -1.298927
 C         3.432778         0.325368        -0.628039
 C         2.686945         0.380575         0.887528
 O         2.710727         1.000975         2.136473
 H         4.754836        -1.081083         1.832010
 H         4.594995        -2.649512         1.014528
 H         5.497983        -1.398382         0.297211
 H        -0.405683        -0.394758         1.124256
 H         0.089558         1.327305         0.729797
 H        -0.572968         0.283086        -0.457172
 H         1.919962        -0.302766        -2.043013
 H         1.874141         1.475032        -1.630225
 H         4.479944         0.748899        -0.855374
 H         2.488063         1.942185         1.993392
