19
Iteration:  3477
 C         4.263094        -1.861671         1.067489
 C         3.291677        -0.829163         0.512479
 O         1.976887        -1.381275         0.104633
 C         1.409052        -0.039966         0.165567
 C        -0.022983        -0.206485         0.389313
 C         2.097459         0.644795        -1.153104
 C         3.445556         0.334324        -0.522190
 C         2.675401         0.462327         0.879480
 O         2.960360         1.440442         1.767276
 H         3.485859        -2.601263         1.323854
 H         4.939934        -2.112294         0.272575
 H         4.798000        -1.682029         2.026998
 H        -0.586586        -0.055117        -0.520866
 H        -0.231970        -1.211087         0.848608
 H        -0.355164         0.523746         1.157484
 H         1.719322         0.097543        -2.050883
 H         1.971101         1.734181        -1.208564
 H         4.413715         0.872526        -0.833700
 H         3.706087         1.884966         1.391797
