19
Iteration:  4150
 C         4.204604        -1.810676         1.179614
 C         3.388929        -0.863897         0.478685
 O         2.050433        -1.407676         0.020943
 C         1.456665        -0.123426         0.012551
 C         0.120919        -0.100845         0.534495
 C         1.929235         0.625898        -1.245055
 C         3.470369         0.431329        -0.528316
 C         2.740198         0.381393         0.814164
 O         2.842610         1.360751         1.843486
 H         5.134845        -2.120284         0.511838
 H         4.465865        -1.435681         2.161740
 H         3.574640        -2.724469         1.461840
 H        -0.000783        -0.952006         1.150882
 H        -0.004156         0.722745         1.272998
 H        -0.661042         0.012897        -0.215429
 H         1.648895         0.153426        -2.184544
 H         1.673982         1.726350        -1.317346
 H         4.269981         1.105314        -0.618315
 H         2.652538         2.222519         1.409328
