19
Iteration:   801charge 0 multiplicity 1
 C         4.530070        -1.505700         0.963427
 C         3.206565        -0.880222         0.456349
 O         2.075683        -1.470777        -0.238168
 C         1.422425        -0.075387        -0.074153
 C        -0.071275        -0.049605         0.320157
 C         2.246327         0.699914        -1.157034
 C         3.423838         0.517548        -0.284268
 C         2.584172         0.326535         0.933240
 O         2.619734         1.012157         2.199642
 H         4.385627        -2.003850         1.955615
 H         4.896488        -2.140107         0.222973
 H         5.285649        -0.715954         0.986659
 H        -0.183772         0.568289         1.160162
 H        -0.662424         0.352862        -0.441339
 H        -0.299767        -1.021111         0.604317
 H         2.108879         0.408656        -2.196037
 H         2.049165         1.738241        -0.976170
 H         4.453000         0.780248        -0.518351
 H         3.487093         1.400244         2.348365
