19
Iteration:  4495charge 0 multiplicity 1
 C         4.182651        -1.815308         1.074661
 C         3.247566        -0.787842         0.453814
 O         2.102415        -1.415102        -0.001927
 C         1.466272        -0.053566        -0.009832
 C         0.120243        -0.235302         0.561086
 C         2.087815         0.602497        -1.326645
 C         3.439652         0.475691        -0.472130
 C         2.639538         0.491707         0.859621
 O         2.788493         1.401896         1.922140
 H         4.106722        -2.765777         0.563328
 H         5.226937        -1.434807         1.020312
 H         3.993782        -2.241557         2.118492
 H        -0.441170        -1.029297         0.087745
 H         0.141168        -0.152821         1.642905
 H        -0.390569         0.621804         0.292041
 H         1.911402        -0.057672        -2.243611
 H         1.882326         1.687574        -1.446563
 H         4.487590         0.962663        -0.607394
 H         3.385964         0.939858         2.578165
