19
Iteration:   794
 C         4.554077        -1.503554         0.950168
 C         3.255344        -0.911914         0.419879
 O         2.089498        -1.460718        -0.226452
 C         1.477294        -0.111884        -0.051382
 C        -0.075318         0.022654         0.292329
 C         2.148961         0.715707        -1.155925
 C         3.446702         0.478865        -0.301578
 C         2.557392         0.377233         1.005823
 O         2.598765         0.963999         2.199694
 H         4.464428        -1.825500         1.960403
 H         4.964795        -2.246377         0.230197
 H         5.184535        -0.637511         1.047792
 H        -0.277751         0.694314         1.157882
 H        -0.734936         0.271432        -0.572698
 H        -0.456684        -0.986846         0.671596
 H         2.179135         0.318760        -2.153790
 H         2.048459         1.835735        -1.152874
 H         4.558245         0.679211        -0.462609
 H         3.437183         1.463601         2.214466
