19
Iteration:  3742
 C         4.468013        -1.613380         0.811286
 C         3.246305        -0.862547         0.521581
 O         1.965611        -1.437593         0.169178
 C         1.460510         0.018269         0.070240
 C         0.087790         0.180121         0.298811
 C         2.097519         0.493005        -1.212999
 C         3.431478         0.434007        -0.467913
 C         2.716565         0.406102         0.871326
 O         2.688276         0.965060         2.124903
 H         4.563481        -2.443279         0.101363
 H         5.295625        -1.022694         0.347820
 H         4.754082        -2.039596         1.755331
 H        -0.310123         1.137919        -0.227782
 H        -0.496382        -0.640097        -0.175956
 H        -0.177836         0.469644         1.355190
 H         2.015690        -0.124115        -2.134967
 H         1.661805         1.515616        -1.368686
 H         4.505942         0.601450        -0.867751
 H         2.388107         1.865482         2.244403
