19
Iteration:  1285
 C         4.531270        -1.586446         0.796387
 C         3.222995        -0.943424         0.470283
 O         2.108977        -1.506096        -0.101168
 C         1.398784        -0.110520        -0.024535
 C        -0.057510         0.048521         0.344391
 C         2.230521         0.561747        -1.212120
 C         3.469562         0.435883        -0.232415
 C         2.632465         0.335317         1.024051
 O         2.569969         1.236436         2.136194
 H         4.357645        -2.234693         1.631296
 H         4.895077        -1.873554        -0.275270
 H         5.138283        -0.702573         1.130197
 H        -0.441275        -0.895295         0.857833
 H        -0.198034         0.924389         1.052858
 H        -0.808271         0.014675        -0.518898
 H         2.281357         0.070326        -2.169362
 H         1.953550         1.652201        -1.287390
 H         4.423288         0.888602        -0.446775
 H         3.155382         2.003561         1.905003
