19
Iteration:   996
 C         4.243131        -1.531593         1.123446
 C         3.233041        -0.756978         0.366252
 O         2.045770        -1.380546        -0.128029
 C         1.457912         0.014674        -0.072837
 C        -0.044605        -0.331309         0.344714
 C         2.191656         0.655072        -1.229444
 C         3.487865         0.616886        -0.471186
 C         2.696929         0.484349         0.931663
 O         2.828637         0.910812         2.215689
 H         3.933537        -1.758983         2.162204
 H         4.211949        -2.400438         0.545975
 H         5.258844        -1.138350         1.079269
 H        -0.165827        -1.370240         0.661107
 H        -0.490896         0.339563         1.114859
 H        -0.704368         0.023522        -0.454336
 H         2.172168         0.008440        -2.116540
 H         1.916824         1.618633        -1.457697
 H         4.556708         0.942604        -0.711985
 H         2.897757         1.872846         2.287780
