19
Iteration:   273
 C         4.403389        -1.826081         0.672888
 C         3.377315        -0.783994         0.454109
 O         2.126284        -1.392953        -0.066461
 C         1.518950        -0.135859        -0.029934
 C         0.055373         0.168901         0.178924
 C         2.208602         0.744215        -1.110958
 C         3.500182         0.649263        -0.245278
 C         2.620488         0.404850         0.991004
 O         2.470631         0.788753         2.285996
 H         3.870637        -2.575235         1.304512
 H         4.763973        -2.285021        -0.262125
 H         5.271569        -1.623504         1.214059
 H        -0.112904         0.931549         0.905081
 H        -0.493566         0.450996        -0.713755
 H        -0.640570        -0.576100         0.458016
 H         2.159321         0.417715        -2.080216
 H         1.608634         1.614229        -1.028088
 H         4.400977         1.361095        -0.179070
 H         2.178019         1.719887         2.374305
