19
Iteration:  4235charge 0 multiplicity 1
 C         4.474222        -1.597503         0.777421
 C         3.262323        -0.811260         0.455940
 O         2.045573        -1.414179         0.314264
 C         1.427951        -0.072317         0.156511
 C        -0.115133         0.133674         0.197082
 C         2.087521         0.266304        -1.225406
 C         3.421960         0.390317        -0.460016
 C         2.688768         0.505280         0.870600
 O         2.870148         1.175086         2.100311
 H         4.421264        -2.524703         0.155139
 H         5.350308        -1.012688         0.522945
 H         4.468535        -2.002842         1.836985
 H        -0.628325        -0.844878         0.019743
 H        -0.583559         0.816777         0.977852
 H        -0.313878         0.660768        -0.710443
 H         2.077473        -0.456745        -2.059684
 H         1.665070         1.315489        -1.510615
 H         4.392402         0.555128        -0.816616
 H         2.299853         1.981280         2.133327
