19
Iteration:   183charge 0 multiplicity 1
 C         4.313987        -1.866348         0.863618
 C         3.295005        -0.864988         0.346527
 O         2.071697        -1.363993        -0.197434
 C         1.465770        -0.063446        -0.040936
 C         0.014042        -0.037340         0.072648
 C         2.229482         0.942091        -0.981980
 C         3.444094         0.675677        -0.210401
 C         2.546253         0.343474         1.013254
 O         2.750840         0.954194         2.239810
 H         3.730501        -2.534068         1.482313
 H         4.919220        -2.391740         0.102436
 H         5.195837        -1.279666         1.349745
 H        -0.329621         0.905589        -0.381997
 H        -0.505144        -0.950331        -0.399764
 H        -0.335047        -0.087601         1.183299
 H         2.177185         0.590338        -2.049615
 H         1.744475         1.928559        -0.732416
 H         4.361849         1.087048        -0.389876
 H         2.941918         0.180053         2.829753
