19
Iteration:  1276charge 0 multiplicity 1
 C         4.561471        -1.568076         0.796851
 C         3.247052        -0.875546         0.407185
 O         2.089230        -1.545140        -0.050789
 C         1.439266        -0.089936        -0.025058
 C        -0.054808         0.004715         0.269865
 C         2.212195         0.573468        -1.075480
 C         3.412504         0.418531        -0.295539
 C         2.611708         0.377173         1.023544
 O         2.589773         1.195290         2.152719
 H         4.474834        -2.241002         1.617605
 H         4.854057        -2.335084        -0.016138
 H         5.301838        -0.758024         0.947154
 H        -0.549340        -0.635232         0.991315
 H        -0.175248         1.029640         0.595049
 H        -0.581128         0.214256        -0.648087
 H         2.165262         0.213844        -2.081884
 H         1.905528         1.669844        -1.136555
 H         4.393017         0.718753        -0.506754
 H         2.951775         2.060833         1.826456
