19
Iteration:  1258charge 0 multiplicity 1
 C         4.582958        -1.678521         0.835722
 C         3.322718        -0.840881         0.473853
 O         2.033877        -1.459206         0.071817
 C         1.470384        -0.184429         0.106180
 C         0.009922         0.040007         0.121062
 C         2.060015         0.683996        -1.143304
 C         3.423334         0.525927        -0.357424
 C         2.664572         0.362888         0.959095
 O         2.648626         1.063395         2.133723
 H         4.418618        -2.019198         1.904529
 H         4.535979        -2.448531         0.127244
 H         5.358754        -0.938525         0.710467
 H        -0.475875        -0.587739         0.878420
 H        -0.346452         1.097851         0.250714
 H        -0.459305        -0.358975        -0.791515
 H         1.890120         0.290681        -2.205176
 H         1.669801         1.686160        -1.118968
 H         4.362656         1.105075        -0.464259
 H         2.485345         2.022441         1.917339
