19
Iteration:  1237
 C         4.418866        -1.741179         0.860456
 C         3.324790        -0.791610         0.461084
 O         2.104837        -1.433145         0.128078
 C         1.424375        -0.055033         0.065047
 C        -0.065711        -0.113068         0.072462
 C         2.107979         0.667719        -1.177555
 C         3.407147         0.708027        -0.422012
 C         2.693998         0.482270         0.903952
 O         2.770268         0.962351         2.228143
 H         4.280517        -1.823601         2.008948
 H         4.289667        -2.668855         0.344897
 H         5.440111        -1.384534         0.664810
 H        -0.345146        -0.418568         1.110432
 H        -0.494384         0.920790        -0.108123
 H        -0.463524        -0.980424        -0.511975
 H         2.045107         0.022187        -2.108440
 H         1.724586         1.646029        -1.359714
 H         4.362634         1.049739        -0.861469
 H         2.193666         1.719908         2.399188
