19
Iteration:  4387
 C         4.492028        -1.589404         0.892503
 C         3.254904        -0.859585         0.480416
 O         1.978504        -1.434941         0.215947
 C         1.408316        -0.064989         0.061741
 C        -0.039332         0.106123         0.388943
 C         2.096449         0.339690        -1.242595
 C         3.418487         0.340066        -0.514448
 C         2.712517         0.485970         0.803779
 O         2.782039         1.303339         1.974885
 H         5.060430        -2.076443         0.107282
 H         5.191439        -0.830208         1.311805
 H         4.282028        -2.129244         1.845658
 H        -0.744718         0.053909        -0.510365
 H        -0.328035        -0.821948         1.045453
 H        -0.091276         1.077177         0.887251
 H         2.002195        -0.437449        -1.976444
 H         1.779237         1.255290        -1.719768
 H         4.412477         0.812228        -0.685772
 H         2.907512         0.552780         2.624858
