19
Iteration:  4381
 C         4.477556        -1.612174         0.938352
 C         3.241530        -0.834456         0.485141
 O         2.010445        -1.452841         0.154226
 C         1.394382        -0.059048         0.096690
 C        -0.038690         0.088410         0.405902
 C         2.080358         0.338030        -1.285958
 C         3.410642         0.338173        -0.535825
 C         2.794436         0.526079         0.805653
 O         2.748694         1.312870         1.993154
 H         4.963846        -2.357007         0.235558
 H         5.082066        -0.774543         1.310141
 H         4.267344        -2.143036         1.865873
 H        -0.641240         0.056481        -0.465442
 H        -0.273132        -0.708208         1.050982
 H        -0.267611         0.946026         1.104633
 H         1.932861        -0.461528        -2.060257
 H         1.817761         1.389489        -1.610078
 H         4.389137         0.711693        -0.904337
 H         3.021825         0.606118         2.620530
