19
Iteration:  4366
 C         4.364383        -1.630417         1.099500
 C         3.313280        -0.815350         0.416155
 O         2.044076        -1.468456         0.105093
 C         1.517003        -0.046710         0.047903
 C         0.001216         0.006271         0.525891
 C         2.027168         0.422656        -1.304716
 C         3.423864         0.370453        -0.650006
 C         2.722081         0.488367         0.853380
 O         2.728421         1.326194         1.989335
 H         4.541990        -2.402358         0.336183
 H         5.348210        -1.260003         1.167797
 H         4.045232        -2.016296         2.096163
 H        -0.614054         0.095850        -0.438141
 H        -0.358031        -1.017697         0.965954
 H        -0.190277         0.941315         1.060396
 H         1.806992        -0.149070        -2.163774
 H         1.722626         1.445587        -1.539045
 H         4.420286         0.480653        -1.169982
 H         3.253212         1.061651         2.741319
