19
Iteration:  2127charge 0 multiplicity 1
 C         4.212101        -1.732235         1.108393
 C         3.310561        -0.780015         0.504656
 O         2.054592        -1.392890         0.285765
 C         1.421192        -0.068293         0.108792
 C        -0.016319         0.065750         0.579830
 C         1.899478         0.220452        -1.365795
 C         3.324956         0.314281        -0.721835
 C         2.824107         0.519742         0.749649
 O         3.095682         1.407362         1.852800
 H         5.082620        -1.396705         1.719544
 H         3.562162        -2.312899         1.761840
 H         4.557300        -2.515019         0.418888
 H        -0.261534        -0.909779         1.112999
 H        -0.263165         0.896935         1.277380
 H        -0.665256         0.218345        -0.351338
 H         1.683269        -0.555700        -2.093158
 H         1.477464         1.192175        -1.688209
 H         4.274420         0.790333        -0.998514
 H         3.214378         2.329670         1.487787
