19
Iteration:  4056
 C         4.552140        -1.645073         0.830424
 C         3.283084        -0.850829         0.404507
 O         1.986812        -1.519588         0.351017
 C         1.359565        -0.150796         0.017112
 C        -0.122151         0.198605         0.128963
 C         2.045085         0.478355        -1.210589
 C         3.357376         0.374292        -0.449078
 C         2.731598         0.442113         0.981651
 O         2.944571         1.194804         2.118623
 H         4.690164        -2.551965         0.316737
 H         5.326068        -0.880628         0.587522
 H         4.529906        -1.609956         1.884339
 H        -0.617704         0.500724         1.039097
 H        -0.573584         0.803236        -0.650213
 H        -0.599537        -0.838461        -0.049261
 H         1.963408        -0.170829        -2.138308
 H         1.703166         1.458807        -1.477951
 H         4.266816         0.665223        -0.855950
 H         2.699380         2.088296         1.842456
