19
Iteration:  2198charge 0 multiplicity 1
 C         4.454275        -1.641921         1.101813
 C         3.287254        -0.886594         0.440346
 O         1.852069        -1.465802         0.329386
 C         1.459933        -0.143999         0.235118
 C        -0.031358         0.203769         0.438135
 C         1.851702         0.268288        -1.250235
 C         3.315401         0.268072        -0.613404
 C         2.777262         0.463608         0.780208
 O         3.092324         1.395288         1.749740
 H         4.685511        -1.684854         2.187614
 H         4.382532        -2.795720         0.800466
 H         5.351969        -1.351982         0.488674
 H        -0.433959         0.066118         1.448825
 H        -0.220929         1.273034         0.230186
 H        -0.521741        -0.361911        -0.338347
 H         1.620418        -0.214509        -2.222364
 H         1.627137         1.339358        -1.400654
 H         4.237692         0.751151        -0.927687
 H         3.551945         2.166500         1.318613
