19
Iteration:  1536charge 0 multiplicity 1
 C         4.426542        -1.801417         0.995540
 C         3.360635        -0.797012         0.412440
 O         2.094359        -1.468912         0.037010
 C         1.502933        -0.217169         0.059922
 C         0.048570         0.063882         0.422747
 C         2.007117         0.547994        -1.176494
 C         3.419846         0.577846        -0.525135
 C         2.680264         0.401586         0.917016
 O         2.570625         1.241938         1.991882
 H         4.743261        -1.579129         2.025111
 H         4.086427        -2.906441         1.046389
 H         5.400080        -1.814131         0.456129
 H        -0.108356         0.057505         1.525925
 H        -0.102902         1.056583        -0.091847
 H        -0.556160        -0.705736        -0.145792
 H         1.817897         0.045802        -2.146261
 H         1.754253         1.642525        -1.335662
 H         4.374822         1.157294        -0.656080
 H         3.356973         1.803118         2.013976
