19
Iteration:   937
 C         4.550627        -1.577645         0.920719
 C         3.288804        -0.876111         0.405613
 O         2.082464        -1.495661        -0.006254
 C         1.445846        -0.096557         0.001752
 C         0.005657         0.069322         0.265658
 C         2.127385         0.582019        -1.181694
 C         3.422375         0.544369        -0.353363
 C         2.669388         0.350697         0.910851
 O         2.609638         1.038615         2.175584
 H         4.310183        -2.020841         1.847729
 H         4.948529        -2.329601         0.169132
 H         5.285517        -0.776963         0.984569
 H        -0.639441        -0.840446         0.399630
 H        -0.154052         0.766278         1.119012
 H        -0.474103         0.318325        -0.709163
 H         2.096729         0.145729        -2.166368
 H         1.610686         1.611822        -1.175197
 H         4.362638         0.960075        -0.475563
 H         2.224471         1.948898         2.095426
