19
Iteration:  3916charge 0 multiplicity 1
 C         4.465866        -1.659695         0.762971
 C         3.254870        -0.786657         0.551642
 O         2.001434        -1.453501         0.217867
 C         1.438002         0.034321         0.073363
 C         0.000574         0.076693         0.246860
 C         2.191520         0.445912        -1.291461
 C         3.422523         0.398626        -0.436848
 C         2.608991         0.499849         0.925597
 O         2.771868         1.057745         2.126688
 H         4.508822        -1.940272         1.817211
 H         4.438004        -2.643595         0.149902
 H         5.437681        -1.174017         0.537489
 H        -0.355359         0.998173         0.769293
 H        -0.368511         0.138009        -0.765127
 H        -0.355984        -0.847024         0.678474
 H         1.948366        -0.257569        -2.123820
 H         1.650775         1.349681        -1.527659
 H         4.294739         0.996319        -0.625984
 H         2.605787         2.036336         2.035444
