19
Iteration:   213
 C         4.392682        -1.733249         0.789968
 C         3.199154        -0.920354         0.390747
 O         2.055593        -1.335839        -0.323208
 C         1.503728         0.050897        -0.047458
 C        -0.050105        -0.058820         0.310876
 C         2.374515         0.906427        -1.042116
 C         3.521100         0.488461        -0.186709
 C         2.587431         0.273711         1.031799
 O         2.609311         0.979419         2.225602
 H         4.107515        -2.453649         1.573922
 H         4.733234        -2.301849        -0.086509
 H         5.137190        -0.981026         1.220201
 H        -0.484858         0.989702         0.377637
 H        -0.503034        -0.619204        -0.531702
 H        -0.000428        -0.566775         1.307284
 H         2.371845         0.408679        -2.090957
 H         2.109027         1.906274        -1.071741
 H         4.545647         0.851150        -0.340502
 H         1.767173         0.821894         2.661195
