19
Iteration:   138
 C         4.313274        -1.770082         0.776007
 C         3.247026        -0.724496         0.451280
 O         1.959894        -1.286332        -0.071156
 C         1.441867         0.010439        -0.059082
 C        -0.067718        -0.073095        -0.063161
 C         2.232544         0.810997        -1.110052
 C         3.428069         0.623511        -0.278519
 C         2.621939         0.468688         1.094158
 O         2.875047         0.784451         2.399796
 H         3.752758        -2.535044         1.315395
 H         4.756502        -2.169999        -0.156701
 H         5.268990        -1.373642         1.353799
 H        -0.553539         0.749653        -0.694554
 H        -0.111572        -1.131840        -0.490799
 H        -0.361503        -0.222267         1.046055
 H         2.485085         0.229396        -2.111232
 H         2.045598         1.891213        -1.328366
 H         4.476188         0.885584        -0.481363
 H         3.037666         0.002854         3.001707
