19
Iteration:  1328charge 0 multiplicity 1
 C         4.335360        -1.798471         0.892061
 C         3.362413        -0.734049         0.419434
 O         2.144576        -1.438361         0.071302
 C         1.560486        -0.081646         0.009651
 C         0.020197        -0.133443         0.406791
 C         2.180083         0.610395        -1.245493
 C         3.460166         0.556855        -0.521986
 C         2.720248         0.503377         0.908395
 O         2.460284         1.134685         2.124361
 H         3.770661        -2.732069         0.895176
 H         5.306423        -1.810588         0.250136
 H         4.451019        -1.493221         1.969741
 H        -0.293540        -1.222337         0.670298
 H        -0.213943         0.573595         1.274959
 H        -0.833356         0.223607        -0.307500
 H         2.009777         0.115932        -2.192134
 H         1.743481         1.644850        -1.330063
 H         4.438954         0.981139        -0.517129
 H         3.040858         1.938635         2.157499
