19
Iteration:  4619
 C         4.426346        -1.740714         0.731262
 C         3.247591        -0.809656         0.539970
 O         2.033724        -1.483262         0.242471
 C         1.385670        -0.129698         0.032694
 C        -0.087658        -0.090201         0.231859
 C         2.176906         0.491701        -1.253530
 C         3.433525         0.516172        -0.359313
 C         2.664656         0.476577         0.924822
 O         2.839909         1.399165         2.003079
 H         4.875930        -1.986887        -0.273784
 H         5.052024        -1.589818         1.576238
 H         3.983242        -2.644289         1.264608
 H        -0.583868        -0.494221        -0.637309
 H        -0.506983        -0.508264         1.124196
 H        -0.273296         0.976044         0.353863
 H         2.137167         0.109387        -2.254151
 H         1.792465         1.541033        -1.089144
 H         4.412851         0.881066        -0.624732
 H         2.934546         0.938578         2.890598
