19
Iteration:  1730charge 0 multiplicity 1
 C         4.467772        -1.649564         0.958909
 C         3.325339        -0.865588         0.413442
 O         2.087789        -1.558565         0.283187
 C         1.450910        -0.178317         0.104740
 C        -0.057826         0.142890         0.418783
 C         2.070421         0.399875        -1.284901
 C         3.324689         0.496021        -0.515434
 C         2.687001         0.418935         0.861415
 O         2.794248         1.271600         1.864261
 H         5.021853        -2.243838         0.248364
 H         5.234116        -1.001735         1.576235
 H         4.004376        -2.322250         1.711656
 H        -0.615773         0.283499        -0.520557
 H        -0.449055        -0.576887         1.192363
 H         0.120544         1.160844         0.853554
 H         1.906241        -0.238963        -2.180303
 H         1.502321         1.372640        -1.410093
 H         4.158269         1.214795        -0.540990
 H         2.554338         2.198093         1.656260
