19
Iteration:  3593
 C         4.328149         0.901603         2.705594
 C         3.348566         0.653748         1.578007
 C         1.818353         0.474516         1.911363
 C         1.258735         0.297317         0.470581
 C        -0.123927         0.340141        -0.058923
 O         1.850004         1.543826        -0.103772
 C         3.240940         1.171271         0.124765
 C         3.357879        -0.308131         0.317036
 O         2.047164        -0.816508        -0.063549
 H         4.327753         2.013650         2.962412
 H         4.249516         0.231632         3.579939
 H         5.418212         0.814564         2.422115
 H         1.875253        -0.501992         2.471421
 H         1.292047         1.334978         2.374222
 H         0.016535         0.157214        -1.145252
 H        -0.777179        -0.355904         0.323397
 H        -0.578895         1.308578         0.113486
 H         3.768641         1.947981        -0.535085
 H         4.223455        -0.987826         0.099408
