19
Iteration:   372
 C         4.449422        -0.021536         2.312094
 C         3.323686         0.225890         1.416557
 C         2.098802        -0.548781         1.503519
 C         1.345750         0.297466         0.351564
 C        -0.089194         0.074501        -0.016033
 O         1.447234         1.652603         0.924858
 C         2.857763         1.627263         1.064292
 C         3.425850         0.757982        -0.055396
 O         2.259263         0.208030        -0.702538
 H         4.150348         0.316189         3.373399
 H         4.589799        -1.089535         2.325737
 H         5.416272         0.416050         2.056236
 H         2.461803        -1.551917         1.145351
 H         1.677292        -0.427432         2.462587
 H        -0.560621         0.548661         0.877003
 H        -0.420200         0.691361        -0.859378
 H        -0.333320        -0.980947        -0.149448
 H         3.266840         2.545898         1.518064
 H         4.408494         0.823397        -0.646098
