19
Iteration:  2735charge 0 multiplicity 1
 C         4.321507         0.752887         2.582599
 C         3.221608         0.689162         1.527323
 C         1.711179         0.598157         1.897147
 C         1.302209         0.397229         0.332852
 C        -0.173090         0.258371         0.072757
 O         1.976632         1.412433        -0.321869
 C         3.281489         1.265231         0.239296
 C         3.375286        -0.253929         0.404472
 O         2.098970        -0.782045         0.106975
 H         4.099577         1.449842         3.379447
 H         4.436885        -0.287735         2.965229
 H         5.251238         0.975348         2.064931
 H         1.407288        -0.250660         2.560602
 H         1.365913         1.615035         2.228953
 H        -0.625620        -0.733846         0.013415
 H        -0.634033         0.944801         0.885549
 H        -0.541489         0.786744        -0.829945
 H         4.109087         1.781992        -0.168075
 H         4.360406        -0.884940         0.225508
