19
Iteration:  2836
 C         4.380300         0.795882         2.640355
 C         3.244437         0.673476         1.611145
 C         1.747368         0.575811         1.846109
 C         1.270382         0.315787         0.399998
 C        -0.247480         0.269890         0.091588
 O         1.957437         1.515132        -0.335371
 C         3.311916         1.259523         0.255000
 C         3.398930        -0.229168         0.359155
 O         2.083167        -0.861813        -0.008503
 H         4.420851         1.853521         2.853531
 H         3.915447         0.290458         3.458447
 H         5.299470         0.320940         2.299829
 H         1.531861        -0.144759         2.653473
 H         1.437113         1.598213         2.166931
 H        -0.600318        -0.709875        -0.285923
 H        -0.789059         0.479460         1.035967
 H        -0.420850         1.074002        -0.661358
 H         4.172616         1.877819        -0.189764
 H         4.035197        -1.060161         0.291275
