19
Iteration:  2954charge 0 multiplicity 1
 C         4.348241         0.818576         2.640447
 C         3.281262         0.679907         1.516173
 C         1.642270         0.434977         1.889815
 C         1.208240         0.303002         0.408239
 C        -0.218189         0.403958         0.057838
 O         1.987751         1.481244        -0.220331
 C         3.301529         1.285078         0.159235
 C         3.460269        -0.217488         0.366849
 O         2.121047        -0.881947         0.051311
 H         3.948446         1.492774         3.330397
 H         4.609397        -0.138792         3.101134
 H         5.201488         1.285205         2.154863
 H         1.495151        -0.554208         2.399034
 H         1.122983         1.287293         2.380314
 H        -0.905589         0.019385         0.815408
 H        -0.445271         1.461267        -0.031584
 H        -0.342180        -0.111225        -0.911069
 H         4.011750         2.056602        -0.356147
 H         4.203555        -0.918928        -0.072224
