19
Iteration:  3156charge 0 multiplicity 1
 C         4.350214         0.721704         2.666950
 C         3.254602         0.657482         1.555474
 C         1.748429         0.550122         1.949058
 C         1.326924         0.346376         0.438350
 C        -0.197445         0.266493         0.062543
 O         1.932691         1.430415        -0.324592
 C         3.271034         1.320317         0.187719
 C         3.365778        -0.246104         0.338697
 O         2.088938        -0.737620        -0.007534
 H         4.226885         1.567597         3.370301
 H         4.451326        -0.245821         3.132119
 H         5.264827         0.899640         2.117427
 H         1.491924        -0.329424         2.587633
 H         1.388474         1.442223         2.508860
 H        -0.550822        -0.743251        -0.245259
 H        -0.964946         0.782519         0.750941
 H        -0.314625         0.830356        -0.903356
 H         3.904956         2.176204        -0.094494
 H         4.242487        -0.893060         0.266123
