19
Iteration:  1859
 C         4.361457         0.632981         2.665297
 C         3.235648         0.380039         1.556342
 C         1.788037         0.279975         1.907443
 C         1.270613         0.357700         0.437612
 C        -0.208070         0.215163         0.083815
 O         1.888553         1.626502         0.012459
 C         3.211831         1.362924         0.312682
 C         3.407846        -0.118535         0.136429
 O         2.139788        -0.522132        -0.259858
 H         3.972255         1.213781         3.418827
 H         4.905946        -0.307201         2.923554
 H         5.039830         1.396572         2.165567
 H         1.512384        -0.627457         2.433307
 H         1.476142         1.185849         2.434644
 H        -0.148470        -0.084662        -0.965000
 H        -0.476998        -0.498232         0.756183
 H        -0.846620         1.056774         0.315678
 H         3.876611         2.240342         0.014018
 H         4.344547        -0.590636        -0.169662
