19
Iteration:  2615charge 0 multiplicity 1
 C         4.281763         0.846322         2.583661
 C         3.221364         0.550913         1.578996
 C         1.732202         0.486647         1.878168
 C         1.299985         0.400526         0.407195
 C        -0.129925         0.325165         0.041158
 O         1.911013         1.577538        -0.184878
 C         3.287396         1.139914         0.161181
 C         3.438955        -0.325223         0.351212
 O         2.091979        -0.755406         0.041917
 H         4.045010         1.835662         2.886041
 H         4.305670         0.074434         3.377878
 H         5.163219         0.918470         1.969305
 H         1.560575        -0.344374         2.608569
 H         1.383358         1.466794         2.287004
 H        -0.646746         0.156136         0.974831
 H        -0.343313         1.247821        -0.460418
 H        -0.354709        -0.563005        -0.561355
 H         4.100281         1.900574        -0.101844
 H         4.077539        -0.969166        -0.142316
