19
Iteration:   321charge 0 multiplicity 1
 C         4.504525        -0.097128         2.202645
 C         3.300258         0.285508         1.420478
 C         1.981450        -0.525742         1.438891
 C         1.341689         0.296781         0.384768
 C        -0.022997        -0.053535        -0.051653
 O         1.455412         1.757831         0.941706
 C         2.847831         1.719129         1.176883
 C         3.429537         0.701196         0.008298
 O         2.260522         0.234625        -0.665778
 H         4.372998        -0.290137         3.276514
 H         4.891195        -1.105371         1.775112
 H         5.250989         0.663103         2.038538
 H         2.236376        -1.527184         1.158745
 H         1.445367        -0.332936         2.373411
 H        -0.557832         0.780136        -0.519651
 H         0.069816        -0.873421        -0.760873
 H        -0.522326        -0.437169         0.849896
 H         3.348541         2.576643         1.686363
 H         4.326698         0.777209        -0.669768
