19
Iteration:  3532
 C         4.320553         0.743331         2.646123
 C         3.268341         0.729383         1.604280
 C         1.724072         0.610834         1.864735
 C         1.277451         0.383248         0.342675
 C        -0.211556         0.120644         0.112378
 O         2.007169         1.525704        -0.255569
 C         3.297976         1.214945         0.204837
 C         3.360844        -0.276273         0.407940
 O         2.067148        -0.707827        -0.063427
 H         4.319975         1.677666         3.176167
 H         4.388404        -0.043381         3.391643
 H         5.209805         0.699171         2.022387
 H         1.600674        -0.111074         2.653218
 H         1.272974         1.538321         2.224133
 H        -0.471023         0.291340        -0.950109
 H        -0.379343        -1.026321         0.293454
 H        -0.868692         0.751469         0.734591
 H         4.113852         1.808104        -0.221799
 H         4.092902        -1.008029         0.146725
