19
Iteration:  1347charge 0 multiplicity 1
 C         4.374020         0.396204         2.579135
 C         3.298928         0.280569         1.561886
 C         1.840413        -0.012632         1.771616
 C         1.265817         0.403885         0.428097
 C        -0.186161         0.071575         0.079955
 O         1.751162         1.710120         0.266368
 C         3.171686         1.505817         0.600965
 C         3.459532         0.151574         0.042888
 O         2.152594        -0.269596        -0.493913
 H         4.146401         1.019513         3.553434
 H         4.873375        -0.509650         3.011655
 H         5.107330         1.073405         2.134109
 H         1.724171        -1.087505         2.064531
 H         1.273228         0.570794         2.519718
 H        -0.210017        -0.158100        -0.981404
 H        -0.627788        -0.806595         0.666887
 H        -0.611563         0.971775         0.543951
 H         3.739585         2.456642         0.496031
 H         4.349178        -0.148258        -0.578977
