19
Iteration:  2586
 C         4.364946         0.745938         2.693004
 C         3.258139         0.630205         1.587479
 C         1.802434         0.652785         1.955869
 C         1.210380         0.392588         0.437644
 C        -0.175997         0.183722         0.013576
 O         2.024393         1.496847        -0.260365
 C         3.316257         1.222838         0.216903
 C         3.311578        -0.269992         0.299824
 O         2.007646        -0.747060        -0.050444
 H         3.874701         1.584236         3.334019
 H         4.649292        -0.141354         3.299998
 H         5.208262         1.287511         2.159905
 H         1.796459        -0.069724         2.756029
 H         1.465709         1.621691         2.285096
 H        -0.737420        -0.107741         0.914058
 H        -0.733469         1.023186        -0.582527
 H        -0.226975        -0.686159        -0.594192
 H         4.052994         1.804130        -0.332265
 H         4.004586        -1.038660        -0.153871
