19
Iteration:  2144charge 0 multiplicity 1
 C         4.343782         0.829124         2.602347
 C         3.233614         0.545566         1.596670
 C         1.760312         0.324154         1.952004
 C         1.289707         0.327188         0.400877
 C        -0.184511         0.397232         0.051207
 O         1.835726         1.530344        -0.119802
 C         3.237236         1.238083         0.148955
 C         3.430153        -0.216961         0.271761
 O         2.195439        -0.741927        -0.079095
 H         4.442033         1.840497         2.917871
 H         4.179064         0.135767         3.496626
 H         5.253736         0.470606         2.139554
 H         1.383614        -0.534872         2.580493
 H         1.327785         1.299193         2.324337
 H        -0.250372         1.106155        -0.797478
 H        -0.766265        -0.596827         0.111719
 H        -0.685850         1.110834         0.730719
 H         3.940768         2.016141        -0.024382
 H         4.274708        -0.828740        -0.019018
