19
Iteration:  3485charge 0 multiplicity 1
 C         4.311625         0.732019         2.691173
 C         3.372039         0.645563         1.576219
 C         1.836260         0.648675         1.825987
 C         1.247899         0.393111         0.463417
 C        -0.144316         0.240109        -0.043993
 O         1.844572         1.493955        -0.296703
 C         3.209702         1.257145         0.140050
 C         3.356486        -0.191814         0.312598
 O         2.111763        -0.838141         0.172278
 H         4.034132         1.220422         3.617042
 H         4.302015        -0.291851         3.049974
 H         5.353320         0.797875         2.393313
 H         1.547756        -0.326564         2.303321
 H         1.465586         1.449967         2.468364
 H        -0.138010         0.134106        -1.140599
 H        -0.665803        -0.573465         0.394784
 H        -0.699654         1.132406         0.242188
 H         3.866003         1.992837        -0.317096
 H         4.275536        -0.753654        -0.037414
