19
Iteration:  3509charge 0 multiplicity 1
 C         4.230355         0.694568         2.660155
 C         3.376123         0.657740         1.490409
 C         1.757923         0.681485         1.973342
 C         1.270935         0.314422         0.539418
 C        -0.085163         0.186149        -0.010818
 O         1.901127         1.520204        -0.235441
 C         3.260107         1.283730         0.054948
 C         3.353741        -0.193164         0.277120
 O         2.082852        -0.804806         0.098067
 H         3.927155         1.399853         3.410341
 H         4.116251        -0.268350         3.156136
 H         5.289430         0.710071         2.416374
 H         1.605779         0.043535         2.845247
 H         1.415223         1.673896         2.249152
 H         0.075277         0.399770        -1.097360
 H        -0.520123        -0.871872         0.053139
 H        -0.789054         0.904037         0.381509
 H         3.957241         1.997497        -0.477560
 H         4.130858        -0.962018         0.014547
