19
Iteration:    41charge 0 multiplicity 1
 C         4.561615        -0.186962         2.089126
 C         3.334641         0.215168         1.382390
 C         2.130444        -0.659302         1.224725
 C         1.345999         0.287509         0.284595
 C        -0.086439        -0.058613         0.007457
 O         1.329969         1.535256         1.113145
 C         2.741301         1.714613         1.278580
 C         3.420085         0.876171         0.136412
 O         2.347646         0.567390        -0.713081
 H         4.460060        -0.132463         3.218490
 H         4.798668        -1.214455         1.905878
 H         5.386706         0.551688         1.805333
 H         2.427420        -1.506401         0.643571
 H         1.603201        -0.805390         2.218517
 H        -0.141693        -1.203891        -0.037172
 H        -0.639712         0.218115         0.934708
 H        -0.653076         0.462485        -0.833084
 H         3.113498         2.614848         1.816949
 H         4.336248         1.137216        -0.325923
