19
Iteration:  4991
 C         4.341442         0.761088         2.605304
 C         3.246702         0.628643         1.587532
 C         1.743395         0.446565         1.921666
 C         1.240953         0.255317         0.398430
 C        -0.180475         0.336472         0.051703
 O         1.881088         1.446635        -0.289537
 C         3.215106         1.357604         0.139401
 C         3.411848        -0.168526         0.389360
 O         2.160156        -0.796780         0.053415
 H         4.445282         1.613619         3.295307
 H         4.542013        -0.108520         3.252864
 H         5.193008         0.803540         1.905951
 H         1.622018        -0.398262         2.498379
 H         1.457858         1.360498         2.331719
 H        -0.349711         0.366444        -1.097948
 H        -0.781959        -0.286383         0.667091
 H        -0.489756         1.364659         0.433102
 H         3.953905         2.125032        -0.192887
 H         4.434809        -0.681242         0.128676
