19
Iteration:  1814
 C         4.315969         0.528638         2.592265
 C         3.247232         0.532766         1.634858
 C         1.809871         0.182054         1.879048
 C         1.321343         0.346575         0.428296
 C        -0.191278         0.284517         0.069697
 O         1.763331         1.617163         0.046170
 C         3.215197         1.464920         0.244582
 C         3.422415        -0.001670         0.146884
 O         2.213694        -0.650350        -0.182388
 H         4.140434         1.250933         3.311466
 H         4.565173        -0.482155         3.016657
 H         5.240134         1.044401         2.170540
 H         1.668069        -0.893705         2.143623
 H         1.297003         0.814895         2.621150
 H        -0.434251        -0.587199        -0.536491
 H        -0.722768         0.550048         0.940638
 H        -0.368412         1.120767        -0.541060
 H         3.947724         2.261880        -0.106150
 H         4.262605        -0.622776        -0.218934
