19
Iteration:  2013
 C         4.307669         0.716475         2.531581
 C         3.294717         0.561143         1.555058
 C         1.773139         0.333743         1.949564
 C         1.245297         0.293106         0.470545
 C        -0.207599         0.344485         0.051553
 O         1.887302         1.533293        -0.080440
 C         3.252655         1.363451         0.284321
 C         3.382612        -0.179905         0.273880
 O         2.168872        -0.689461        -0.197891
 H         3.956352         1.352382         3.382977
 H         4.512754        -0.248719         3.169767
 H         5.291976         1.079403         2.158887
 H         1.633896        -0.620257         2.500725
 H         1.310049         1.124737         2.581848
 H        -0.856249         0.086557         0.881367
 H        -0.416435         1.417000        -0.254966
 H        -0.363892        -0.359985        -0.810462
 H         4.080236         2.078262         0.109491
 H         4.290024        -0.628601        -0.102711
