19
Iteration:  2740
 C         4.302908         0.750517         2.537746
 C         3.190098         0.668121         1.547601
 C         1.709614         0.601438         1.917538
 C         1.331295         0.336135         0.345071
 C        -0.174099         0.309950         0.075043
 O         1.963442         1.400311        -0.332474
 C         3.307708         1.265163         0.229082
 C         3.378867        -0.249258         0.420671
 O         2.088431        -0.774493         0.098312
 H         3.920402         1.442721         3.322677
 H         4.441128        -0.245683         2.941725
 H         5.238934         1.029505         2.008595
 H         1.466437        -0.209265         2.586972
 H         1.391525         1.561553         2.288061
 H        -0.540226        -0.725018         0.072011
 H        -0.592555         0.800473         0.915391
 H        -0.315976         0.891347        -0.842091
 H         4.195629         1.829698        -0.143447
 H         4.326711        -0.607808         0.287256
