19
Iteration:  1270
 C         4.522826         0.228647         2.521049
 C         3.289898         0.410149         1.662176
 C         1.756568         0.002385         1.836135
 C         1.244878         0.331035         0.410287
 C        -0.134775         0.052263         0.041672
 O         1.679068         1.737474         0.291073
 C         3.088344         1.575922         0.564999
 C         3.462989         0.211223         0.144267
 O         2.199921        -0.245400        -0.581568
 H         4.443713         0.836064         3.508651
 H         4.788528        -0.815097         2.826001
 H         5.297525         0.563054         1.836134
 H         1.520808        -1.068885         2.072562
 H         1.343177         0.644244         2.630210
 H        -0.446413        -0.764432         0.703071
 H        -0.747426         0.950445         0.311842
 H        -0.145998        -0.294636        -1.036938
 H         3.714226         2.464756         0.591330
 H         4.311514        -0.126120        -0.396439
