19
Iteration:  4888charge 0 multiplicity 1
 C         4.285230         0.819010         2.560077
 C         3.195914         0.617650         1.625274
 C         1.779878         0.357646         1.913782
 C         1.284394         0.299925         0.467992
 C        -0.202094         0.370268         0.092459
 O         1.869962         1.531079        -0.220779
 C         3.254254         1.290177         0.138131
 C         3.490112        -0.258009         0.312476
 O         2.164219        -0.785896        -0.021716
 H         4.324573         1.827698         2.934365
 H         4.204806         0.147829         3.404173
 H         5.233187         0.630150         2.078482
 H         1.362036        -0.551475         2.500082
 H         1.391442         1.298376         2.457209
 H        -0.311321         0.359265        -1.014610
 H        -0.741716        -0.475462         0.594857
 H        -0.519784         1.354857         0.452236
 H         3.943797         2.116055        -0.265258
 H         4.433699        -0.625244        -0.018245
