19
Iteration:  4634charge 0 multiplicity 1
 C         4.275105         0.604654         2.625134
 C         3.309852         0.618923         1.542143
 C         1.866302         0.475619         1.939270
 C         1.319596         0.338986         0.433703
 C        -0.196500         0.237697         0.058919
 O         1.825434         1.547996        -0.187367
 C         3.136190         1.373181         0.120322
 C         3.402761        -0.100892         0.265398
 O         2.163596        -0.773035         0.029499
 H         4.268294         1.587303         3.112383
 H         4.026873        -0.195262         3.310952
 H         5.277032         0.418246         2.272188
 H         1.758133        -0.378999         2.681544
 H         1.633100         1.495764         2.319652
 H         0.009648        -0.256673        -0.911173
 H        -0.697547        -0.529232         0.683726
 H        -0.580154         1.251003        -0.022235
 H         3.736494         2.306018        -0.066661
 H         4.300280        -0.702504        -0.107277
