19
Iteration:  1319charge 0 multiplicity 1
 C         4.350071         0.253754         2.608528
 C         3.315587         0.466879         1.573090
 C         1.915329        -0.010658         1.855016
 C         1.291352         0.361430         0.429163
 C        -0.125422         0.143863         0.052728
 O         1.641714         1.762506         0.350687
 C         3.070448         1.577746         0.453156
 C         3.412865         0.212829        -0.063804
 O         2.264078        -0.413739        -0.431534
 H         4.004277         0.481989         3.565467
 H         4.523345        -0.811163         2.669032
 H         5.320231         0.759924         2.389498
 H         1.986383        -1.080001         2.042075
 H         1.289847         0.435407         2.643492
 H        -0.212870        -0.676652        -0.704383
 H        -0.733702        -0.068510         0.911464
 H        -0.405008         1.123767        -0.329596
 H         3.610985         2.467712         0.308044
 H         4.276649        -0.282639        -0.526905
