19
Iteration:  3801
 C         4.322850         0.694792         2.706857
 C         3.270805         0.610219         1.561032
 C         1.760165         0.579888         1.937952
 C         1.288178         0.430031         0.503928
 C        -0.186968         0.155918         0.030784
 O         1.833687         1.456763        -0.299855
 C         3.262888         1.323871         0.155308
 C         3.440869        -0.209955         0.291681
 O         2.149794        -0.710452        -0.003305
 H         4.077277         1.386620         3.529655
 H         4.352284        -0.315783         3.077466
 H         5.302342         0.977674         2.300082
 H         1.548032        -0.242640         2.623070
 H         1.443842         1.527486         2.398620
 H        -0.147481        -0.092933        -1.044570
 H        -0.773398        -0.563140         0.673615
 H        -0.756711         1.082512         0.026592
 H         3.942224         2.057865        -0.235147
 H         4.289874        -0.803330        -0.184863
