19
Iteration:  4149
 C         4.233124         0.707033         2.672780
 C         3.274532         0.630624         1.491219
 C         1.849378         0.666948         1.974392
 C         1.275922         0.394843         0.606503
 C        -0.075693         0.047998        -0.028680
 O         1.933490         1.598290        -0.144223
 C         3.234001         1.214570         0.047131
 C         3.368748        -0.254243         0.251689
 O         2.034328        -0.675904        -0.005560
 H         4.031757         1.632420         3.314824
 H         4.211301        -0.331916         3.100115
 H         5.320060         0.826757         2.344252
 H         1.577450        -0.098148         2.717686
 H         1.461508         1.652967         2.361270
 H         0.034263         0.304212        -1.090545
 H        -0.255463        -1.057513         0.176523
 H        -0.948606         0.538124         0.456664
 H         3.836664         1.786867        -0.598943
 H         4.243344        -0.925276         0.003682
