19
Iteration:  4802charge 0 multiplicity 1
 C         4.377787         0.696329         2.614051
 C         3.213315         0.588252         1.597415
 C         1.733107         0.578742         1.896392
 C         1.266527         0.360956         0.402577
 C        -0.172039         0.037461         0.115768
 O         2.016414         1.604220        -0.260224
 C         3.239728         1.224748         0.268626
 C         3.327341        -0.170964         0.332360
 O         2.090568        -0.624658        -0.095711
 H         4.225914         1.559831         3.284344
 H         4.576681        -0.225629         3.200927
 H         5.294654         0.860686         1.996711
 H         1.238726        -0.285318         2.344928
 H         1.370574         1.592615         2.086015
 H        -0.470345        -0.257130        -0.932008
 H        -0.333152        -0.761814         0.947688
 H        -0.745001         0.859305         0.609742
 H         4.002233         1.962787        -0.034088
 H         4.219358        -0.785191         0.025531
