19
Iteration:  2381
 C         4.324730         0.692870         2.630815
 C         3.202196         0.626949         1.536993
 C         1.743626         0.729770         1.921820
 C         1.358040         0.352097         0.358021
 C        -0.064233         0.165994         0.076388
 O         1.932434         1.564210        -0.226254
 C         3.303705         1.220051         0.171017
 C         3.296300        -0.295431         0.284036
 O         2.046770        -0.734814         0.070651
 H         4.002304         1.367964         3.466567
 H         4.492204        -0.291141         3.181544
 H         5.359464         1.067976         2.424045
 H         1.369235        -0.057905         2.597764
 H         1.251615         1.707785         2.102878
 H        -0.378016        -0.702415         0.649951
 H        -0.656296         1.088974         0.405250
 H        -0.275314        -0.153693        -0.942468
 H         4.045653         1.728488        -0.504834
 H         4.068865        -0.958716        -0.074468
