19
Iteration:   435charge 0 multiplicity 1
 C         4.565533         0.038572         2.293545
 C         3.298082         0.194195         1.426351
 C         1.857745        -0.493042         1.522352
 C         1.323394         0.339237         0.395657
 C        -0.068510         0.043315         0.013876
 O         1.495962         1.681812         0.854371
 C         2.875063         1.616452         1.076816
 C         3.446233         0.636234        -0.020747
 O         2.302141         0.208566        -0.728424
 H         4.376572         0.060028         3.374728
 H         5.004551        -0.924967         2.204227
 H         5.220578         0.911082         2.006038
 H         2.010502        -1.598302         1.199794
 H         1.366367        -0.508586         2.520441
 H        -0.244163        -1.040272         0.115235
 H        -0.668408         0.646178         0.722633
 H        -0.317148         0.436043        -0.981363
 H         3.346614         2.549425         1.441917
 H         4.471994         0.739626        -0.534435
