19
Iteration:  2583
 C         4.338971         0.723683         2.662152
 C         3.237570         0.690200         1.602202
 C         1.809799         0.640193         1.962139
 C         1.216908         0.354666         0.428397
 C        -0.193351         0.183658         0.008846
 O         2.030092         1.505424        -0.273276
 C         3.348709         1.196565         0.211211
 C         3.327106        -0.274744         0.305416
 O         2.001496        -0.733639        -0.029851
 H         3.943033         1.489731         3.387450
 H         4.699376        -0.141964         3.310902
 H         5.203845         1.246992         2.208715
 H         1.811725        -0.074698         2.811877
 H         1.450658         1.630761         2.292504
 H        -0.744349        -0.014599         0.921970
 H        -0.782777         0.951045        -0.474295
 H        -0.280273        -0.676579        -0.667545
 H         4.059118         1.896578        -0.365203
 H         4.025087        -0.856685        -0.176830
