19
Iteration:  4164charge 0 multiplicity 1
 C         4.380951         0.698734         2.668243
 C         3.337529         0.648057         1.605653
 C         1.802294         0.640481         1.906751
 C         1.255568         0.336641         0.432398
 C        -0.215024         0.034877         0.017462
 O         1.915847         1.550752        -0.212584
 C         3.319721         1.288138         0.119487
 C         3.296902        -0.212484         0.307671
 O         2.029574        -0.674563        -0.005886
 H         3.982123         1.353906         3.401697
 H         4.469000        -0.160952         3.280727
 H         5.313384         1.085912         2.313297
 H         1.634624        -0.069697         2.696180
 H         1.574861         1.591479         2.292163
 H        -0.162117         0.092524        -1.109806
 H        -0.485480        -0.957692         0.209015
 H        -0.895282         0.763783         0.460523
 H         4.232189         1.929554        -0.089424
 H         3.990878        -0.884837        -0.086539
