19
Iteration:   164
 C         4.572900        -0.180431         2.250540
 C         3.356775         0.277367         1.461376
 C         2.063232        -0.612438         1.405503
 C         1.278946         0.326620         0.409867
 C        -0.102302        -0.047612        -0.055874
 O         1.421522         1.618805         1.048565
 C         2.831524         1.681851         1.158730
 C         3.369685         0.923429        -0.013545
 O         2.309567         0.360998        -0.771700
 H         4.345987        -0.195022         3.377257
 H         4.789069        -1.183610         1.905004
 H         5.526073         0.428803         2.091043
 H         2.258924        -1.605482         0.932349
 H         1.551929        -0.740589         2.346753
 H        -0.876337        -0.119249         0.729403
 H        -0.458897         0.627418        -0.894348
 H         0.011558        -1.046670        -0.541235
 H         3.318888         2.653940         1.423461
 H         4.291508         1.104852        -0.608691
