19
Iteration:  1875charge 0 multiplicity 1
 C         4.347289         0.638493         2.560889
 C         3.285282         0.493577         1.544108
 C         1.748076         0.335614         1.900859
 C         1.306900         0.437850         0.382363
 C        -0.106358         0.098443         0.108517
 O         1.880680         1.732457         0.048784
 C         3.270421         1.332618         0.387824
 C         3.390492        -0.138338         0.180488
 O         2.064681        -0.620507        -0.257426
 H         3.856641         1.042624         3.539980
 H         4.587054        -0.321708         2.990307
 H         5.210327         1.127233         2.124824
 H         1.399282        -0.641671         2.317946
 H         1.310306         1.211545         2.414491
 H        -0.326433         0.189151        -0.983606
 H        -0.442404        -1.025745         0.272911
 H        -0.764966         0.870996         0.602176
 H         3.979331         2.115225         0.232759
 H         4.081456        -0.751564        -0.387939
