19
Iteration:  3992
 C         4.358309         0.626001         2.541322
 C         3.167989         0.624479         1.634829
 C         1.698165         0.569441         1.846591
 C         1.289089         0.470885         0.349265
 C        -0.181670         0.204823         0.181606
 O         1.925158         1.407886        -0.390755
 C         3.210791         1.398756         0.293738
 C         3.408304        -0.160944         0.428535
 O         2.209239        -0.781620        -0.009089
 H         4.142584         1.374569         3.337985
 H         4.398898        -0.419116         2.962430
 H         5.378135         0.760325         2.152428
 H         1.247766        -0.277851         2.468421
 H         1.378408         1.593425         2.162513
 H        -0.440270         0.071605        -0.905764
 H        -0.412369        -0.602597         0.773735
 H        -0.610560         1.180253         0.398990
 H         3.965536         2.123466         0.281262
 H         4.310880        -0.655856         0.014504
