19
Iteration:  1719charge 0 multiplicity 1
 C         4.397594         0.453752         2.663770
 C         3.296102         0.527254         1.628738
 C         1.817404         0.118880         1.950718
 C         1.333815         0.304375         0.438114
 C        -0.145030         0.295373         0.034377
 O         1.735141         1.651546         0.044510
 C         3.084946         1.469918         0.307059
 C         3.408197         0.035874         0.069005
 O         2.207723        -0.575083        -0.273986
 H         4.501739         1.331260         3.432157
 H         4.365389        -0.492424         3.243386
 H         5.389531         0.566075         2.239135
 H         1.550967        -0.804238         2.431105
 H         1.375538         0.966751         2.465954
 H        -0.867440         0.279128         0.954593
 H        -0.321029         1.038683        -0.721882
 H        -0.495121        -0.686943        -0.415512
 H         3.713235         2.352281         0.000385
 H         4.302206        -0.256619        -0.493300
