19
Iteration:  4800
 C         4.378075         0.680650         2.620035
 C         3.230617         0.605082         1.602685
 C         1.727443         0.579136         1.905645
 C         1.274692         0.361985         0.400548
 C        -0.179312         0.030957         0.126278
 O         2.000219         1.588916        -0.261439
 C         3.246959         1.250478         0.256313
 C         3.338172        -0.183427         0.337476
 O         2.099252        -0.617352        -0.095587
 H         4.223677         1.507631         3.286796
 H         4.588770        -0.227483         3.164970
 H         5.257970         0.890859         2.036439
 H         1.192248        -0.283995         2.341677
 H         1.328484         1.611843         2.065753
 H        -0.536341        -0.184789        -0.937231
 H        -0.394253        -0.746243         0.838569
 H        -0.720089         0.887160         0.573355
 H         3.965952         1.897495        -0.120416
 H         4.224496        -0.816632         0.037551
