19
Iteration:  4677
 C         4.410375         0.756453         2.599328
 C         3.200363         0.573627         1.586444
 C         1.793759         0.401685         1.927115
 C         1.298126         0.377426         0.471211
 C        -0.157048         0.194394         0.014191
 O         1.877218         1.568722        -0.172814
 C         3.208662         1.312441         0.242801
 C         3.400917        -0.200026         0.321060
 O         2.079942        -0.704954        -0.109913
 H         4.472541         1.820008         2.746849
 H         4.279705         0.365846         3.583357
 H         5.351606         0.453327         2.194212
 H         1.540674        -0.573808         2.436165
 H         1.346427         1.332479         2.344387
 H        -0.494949        -0.057013        -0.960134
 H        -0.478967        -0.628520         0.680616
 H        -0.636351         1.139035         0.270193
 H         4.083908         2.006928        -0.015124
 H         4.274760        -0.697353        -0.137757
