19
Iteration:  3289
 C         4.288784         0.820197         2.691157
 C         3.326290         0.610247         1.586486
 C         1.825674         0.566325         1.928539
 C         1.287849         0.381824         0.507720
 C        -0.030891         0.315545         0.001305
 O         1.840728         1.437074        -0.321909
 C         3.175722         1.206926         0.153000
 C         3.366718        -0.286240         0.321718
 O         2.060765        -0.786483         0.054103
 H         3.981609         1.532643         3.412121
 H         4.470044        -0.137296         3.100342
 H         5.264787         1.171021         2.407053
 H         1.338471        -0.170181         2.555919
 H         1.595264         1.533493         2.351508
 H         0.089431         0.589995        -1.067327
 H        -0.443252        -0.667711         0.031825
 H        -0.683544         1.157053         0.433059
 H         3.825019         1.982418        -0.394080
 H         4.172407        -0.815862        -0.255483
