19
Iteration:   581charge 0 multiplicity 1
 C         4.458161         0.066245         2.397109
 C         3.310000         0.338353         1.445073
 C         2.005875        -0.466689         1.594602
 C         1.305973         0.254101         0.395019
 C        -0.117276         0.140344         0.009606
 O         1.514227         1.611359         0.764477
 C         2.939671         1.684073         0.921000
 C         3.426158         0.575062        -0.040670
 O         2.268809         0.072424        -0.677576
 H         4.065303         0.368345         3.406859
 H         4.701791        -0.978051         2.393631
 H         5.344151         0.606596         2.209485
 H         2.337385        -1.472703         1.415647
 H         1.404051        -0.275614         2.503996
 H        -0.604864         0.185538         0.985210
 H        -0.374589         1.078449        -0.444917
 H        -0.337394        -0.807630        -0.501087
 H         3.433710         2.655268         1.087959
 H         4.467436         0.609275        -0.533295
