19
Iteration:  1370charge 0 multiplicity 1
 C         4.376310         0.466787         2.474659
 C         3.215895         0.385335         1.523563
 C         1.774415        -0.115816         1.812110
 C         1.311087         0.401804         0.406490
 C        -0.107100         0.173848         0.085870
 O         1.757865         1.810308         0.361685
 C         3.101052         1.541079         0.582928
 C         3.461478         0.047888         0.078045
 O         2.204342        -0.434950        -0.517381
 H         4.169138         1.179565         3.403716
 H         4.557525        -0.501855         2.962536
 H         5.261642         0.889919         2.059422
 H         1.620363        -1.193681         2.060816
 H         1.215175         0.476423         2.578913
 H        -0.399491         0.545425        -0.910686
 H        -0.216371        -0.955984         0.010878
 H        -0.560069         0.473752         0.985513
 H         3.804238         2.343685         0.650421
 H         4.469489        -0.079302        -0.310009
