19
Iteration:  4320charge 0 multiplicity 1
 C         4.296042         0.630515         2.563943
 C         3.231228         0.751842         1.555037
 C         1.789908         0.542553         1.903775
 C         1.309738         0.342666         0.410107
 C        -0.178285         0.310700         0.117354
 O         1.873812         1.365627        -0.291498
 C         3.186130         1.400982         0.244171
 C         3.418001        -0.126845         0.342415
 O         2.195885        -0.822640         0.049879
 H         4.201601         1.331348         3.392643
 H         4.119388        -0.345770         3.006417
 H         5.238673         0.593610         2.065229
 H         1.435692        -0.410624         2.340685
 H         1.509109         1.503346         2.360772
 H        -0.237125         0.733564        -0.872776
 H        -0.468438        -0.794098         0.005866
 H        -0.789948         0.983436         0.735517
 H         3.878222         2.103670        -0.310522
 H         4.285977        -0.646021         0.068438
