19
Iteration:  2832
 C         4.349239         0.821336         2.627052
 C         3.199820         0.656550         1.606628
 C         1.758040         0.588195         1.825875
 C         1.266525         0.327657         0.418560
 C        -0.194230         0.260729         0.096839
 O         1.974154         1.503505        -0.292223
 C         3.326951         1.257230         0.225657
 C         3.358929        -0.279502         0.372061
 O         2.077568        -0.835716        -0.025778
 H         4.436527         1.878259         2.861927
 H         4.061115         0.267101         3.588381
 H         5.268962         0.340031         2.290000
 H         1.527454        -0.214767         2.557191
 H         1.563813         1.622906         2.167338
 H        -0.518803        -0.696331        -0.293694
 H        -0.862838         0.525413         0.996512
 H        -0.475656         1.045662        -0.581805
 H         4.029371         1.883887        -0.262867
 H         4.279425        -0.956601         0.254325
