19
Iteration:   254
 C         4.473432        -0.025172         2.203590
 C         3.213571         0.224381         1.459411
 C         2.074499        -0.694450         1.451868
 C         1.305792         0.304588         0.395681
 C        -0.149789         0.057664         0.016521
 O         1.444235         1.592775         0.906047
 C         2.903147         1.633456         1.129859
 C         3.464211         0.791670         0.005873
 O         2.374460         0.369012        -0.697034
 H         4.456723        -0.020482         3.346961
 H         5.049898        -0.959571         1.827066
 H         5.106763         0.788359         1.927654
 H         2.303491        -1.595817         0.890613
 H         1.629625        -0.803246         2.392234
 H        -0.183787        -0.650693        -0.833183
 H        -0.733477        -0.347309         0.841835
 H        -0.617918         1.019734        -0.248286
 H         3.037496         2.518205         1.688442
 H         4.342831         1.174520        -0.545882
