19
Iteration:  4598charge 0 multiplicity 1
 C         4.373038         0.783880         2.578353
 C         3.163890         0.601095         1.643801
 C         1.778700         0.527461         1.878275
 C         1.298313         0.397376         0.338783
 C        -0.197355         0.064768         0.186617
 O         2.014258         1.622134        -0.151088
 C         3.285899         1.299128         0.223214
 C         3.328521        -0.240680         0.372297
 O         2.073199        -0.680004        -0.225033
 H         4.265635         1.289487         3.507360
 H         4.619367        -0.228129         2.840239
 H         5.273632         1.096487         2.071875
 H         1.471218        -0.311616         2.535608
 H         1.217314         1.380273         2.280296
 H        -0.452126        -0.205475        -0.777505
 H        -0.404249        -0.806694         0.856904
 H        -1.057760         0.696457         0.425455
 H         4.161167         1.844219         0.049295
 H         4.056290        -1.040874         0.130408
