19
Iteration:  1616
 C         4.343382         0.332261         2.602021
 C         3.305325         0.525192         1.557812
 C         1.801849         0.095601         1.898115
 C         1.340323         0.285773         0.497441
 C        -0.137540         0.221735         0.050008
 O         1.679236         1.694531         0.061620
 C         3.089146         1.589081         0.313181
 C         3.444804         0.069414         0.171183
 O         2.232668        -0.510195        -0.294602
 H         4.166266         0.981735         3.429492
 H         4.228739        -0.693740         3.098893
 H         5.467372         0.464138         2.223283
 H         1.839467        -0.854082         2.478672
 H         1.519206         0.892249         2.606821
 H        -0.102096         0.802334        -0.861234
 H        -0.388911        -0.863577        -0.191590
 H        -0.794133         0.616882         0.858273
 H         3.759421         2.416235        -0.081667
 H         4.379474        -0.151322        -0.345215
