19
Iteration:  1284
 C         4.460037         0.192210         2.519158
 C         3.218300         0.463345         1.586545
 C         1.901570         0.004625         1.892745
 C         1.337265         0.349288         0.403603
 C        -0.147239         0.078701         0.041085
 O         1.633442         1.738751         0.205267
 C         3.068860         1.593844         0.654562
 C         3.398067         0.198668         0.026334
 O         2.248705        -0.307533        -0.465232
 H         4.463033         0.705312         3.553035
 H         4.544117        -0.868382         2.579327
 H         5.385447         0.551613         2.127103
 H         1.948017        -1.091656         2.132882
 H         1.272342         0.570757         2.632891
 H        -0.593797        -0.931666         0.254605
 H        -0.741102         0.891999         0.588673
 H        -0.374829         0.303296        -0.992708
 H         3.620433         2.567986         0.645942
 H         4.432828        -0.166742        -0.286091
