19
Iteration:  4675
 C         4.417302         0.742592         2.617468
 C         3.203760         0.596968         1.583845
 C         1.799270         0.389450         1.925043
 C         1.280482         0.353089         0.477235
 C        -0.143802         0.210067         0.020764
 O         1.877062         1.568870        -0.168546
 C         3.209216         1.311412         0.210801
 C         3.395937        -0.189113         0.313820
 O         2.079656        -0.706161        -0.104076
 H         4.500655         1.813731         2.791538
 H         4.268158         0.371781         3.614467
 H         5.382549         0.447498         2.216761
 H         1.528558        -0.535110         2.467106
 H         1.326068         1.291302         2.319424
 H        -0.422760        -0.042575        -0.924922
 H        -0.562584        -0.643252         0.645321
 H        -0.653011         1.157982         0.173090
 H         3.980697         2.049560        -0.050584
 H         4.314512        -0.714905        -0.112860
