19
Iteration:   275
 C         4.689918        -0.093711         2.302988
 C         3.416418         0.277840         1.431926
 C         2.067787        -0.542946         1.388596
 C         1.344461         0.291437         0.346606
 C        -0.093614         0.038774        -0.101105
 O         1.387416         1.646175         1.024457
 C         2.791311         1.650091         1.139918
 C         3.343450         0.798723         0.029251
 O         2.211026         0.240015        -0.712603
 H         4.240657        -0.348096         3.357614
 H         5.058213        -1.136632         2.037713
 H         5.460022         0.664706         2.404461
 H         2.035483        -1.609317         1.111569
 H         1.575570        -0.195270         2.221912
 H         0.023471        -0.089391        -1.199209
 H        -0.595889        -0.847117         0.328956
 H        -0.672462         0.950616         0.103666
 H         3.248973         2.570729         1.381588
 H         4.238412         0.837362        -0.608202
