19
Iteration:  4372
 C         4.342303         0.866535         2.613562
 C         3.291856         0.503255         1.600194
 C         1.778334         0.549910         1.960327
 C         1.265881         0.502724         0.362087
 C        -0.176252         0.154878         0.043200
 O         1.926697         1.533755        -0.181265
 C         3.328694         1.174998         0.322802
 C         3.329663        -0.305692         0.184243
 O         2.045746        -0.689528        -0.071070
 H         3.807609         1.542729         3.369285
 H         4.843903         0.072347         3.244734
 H         5.051409         1.500886         2.023353
 H         1.616370        -0.401743         2.420083
 H         1.519827         1.406897         2.471977
 H        -0.460676         0.058925        -0.957140
 H        -0.124321        -0.928810         0.416336
 H        -0.926149         0.684352         0.631574
 H         4.012018         2.072500         0.189184
 H         4.093337        -0.901702        -0.246582
