19
Iteration:  2708
 C         4.358555         0.716617         2.730983
 C         3.268687         0.605453         1.550911
 C         1.756025         0.679465         1.923993
 C         1.286888         0.449821         0.405186
 C        -0.121250         0.133823         0.084951
 O         1.914380         1.521110        -0.290049
 C         3.326941         1.175821         0.085545
 C         3.329116        -0.226641         0.388148
 O         2.002431        -0.733978        -0.010388
 H         4.257343         1.782945         3.162148
 H         4.307209        -0.051947         3.521652
 H         5.422024         0.765207         2.325756
 H         1.471897        -0.101934         2.624709
 H         1.411726         1.653115         2.240367
 H        -0.425170        -0.924974         0.333330
 H        -0.856055         0.852007         0.343056
 H        -0.270924         0.081521        -1.048641
 H         4.247968         1.648907        -0.326832
 H         4.220327        -0.737838         0.158159
