19
Iteration:   649charge 0 multiplicity 1
 C         4.501516        -0.036649         2.288940
 C         3.253214         0.301855         1.586930
 C         1.838678        -0.311877         1.635256
 C         1.341957         0.297764         0.337926
 C        -0.012136         0.000732         0.061877
 O         1.505177         1.758869         0.597847
 C         2.922701         1.662287         0.901789
 C         3.435721         0.513629         0.074826
 O         2.299419         0.113072        -0.628072
 H         4.506964         0.034809         3.352133
 H         4.889902        -1.069239         2.050074
 H         5.230785         0.696920         1.975566
 H         1.987520        -1.368829         1.509844
 H         1.361581        -0.055384         2.602690
 H        -0.270143        -1.041953        -0.205083
 H        -0.523309         0.082247         1.047990
 H        -0.366076         0.704773        -0.718999
 H         3.494740         2.516871         1.198347
 H         4.341752         0.433796        -0.405636
