19
Iteration:   674charge 0 multiplicity 1
 C         4.501850        -0.022814         2.413675
 C         3.357847         0.342691         1.510366
 C         1.913430        -0.367569         1.625558
 C         1.219413         0.311530         0.427882
 C        -0.239837         0.117203         0.032955
 O         1.560117         1.716381         0.619298
 C         2.894930         1.689677         0.917384
 C         3.481423         0.610601        -0.002182
 O         2.375968        -0.069258        -0.687434
 H         4.425364         0.279217         3.412167
 H         4.772870        -1.109439         2.358345
 H         5.407624         0.562276         2.040637
 H         2.193410        -1.436354         1.516351
 H         1.577856        -0.167801         2.627321
 H        -0.437702        -0.593063        -0.811951
 H        -0.663668        -0.478133         0.849538
 H        -0.745347         1.064021        -0.189183
 H         3.361063         2.638156         1.228655
 H         4.493429         0.722091        -0.477097
