19
Iteration:  2290
 C         4.343728         0.874750         2.664191
 C         3.281555         0.432732         1.631188
 C         1.822907         0.521524         1.937384
 C         1.283695         0.424468         0.463658
 C        -0.173310         0.247866         0.039459
 O         1.964750         1.532925        -0.230868
 C         3.221079         1.151248         0.180924
 C         3.353297        -0.297770         0.283641
 O         2.028893        -0.647978        -0.067848
 H         4.282808         2.006176         2.780837
 H         4.263151         0.403211         3.612335
 H         5.333764         0.636899         2.231983
 H         1.403779        -0.252748         2.554024
 H         1.442403         1.439798         2.358816
 H        -0.959311         0.212160         0.811631
 H        -0.464830         0.824180        -0.816518
 H        -0.147154        -0.812129        -0.265824
 H         4.026387         1.858729        -0.151527
 H         4.243843        -0.762498        -0.175532
