19
Iteration:   356charge 0 multiplicity 1
 C         4.541309        -0.086646         2.320290
 C         3.324350         0.292970         1.451476
 C         2.010186        -0.573317         1.467691
 C         1.301064         0.231693         0.396083
 C        -0.226936         0.000059         0.047887
 O         1.504172         1.629633         0.771235
 C         2.881126         1.698118         1.125081
 C         3.472064         0.733926         0.038511
 O         2.332256         0.365008        -0.739735
 H         4.474548         0.239990         3.312260
 H         4.918361        -1.151726         2.158478
 H         5.466959         0.430172         1.936656
 H         1.991353        -1.647849         1.256102
 H         1.380235        -0.560961         2.447572
 H        -0.891256         0.686740         0.579955
 H        -0.383089         0.127275        -1.039421
 H        -0.597709        -1.011897         0.307185
 H         3.240152         2.636402         1.535116
 H         4.292572         0.798452        -0.583869
