19
Iteration:  2432
 C         4.341602         0.790698         2.636084
 C         3.196480         0.630456         1.551065
 C         1.754432         0.554815         1.854993
 C         1.306606         0.368086         0.415244
 C        -0.133040         0.344850         0.077047
 O         1.965754         1.433003        -0.298549
 C         3.249838         1.254426         0.165714
 C         3.381381        -0.229996         0.365621
 O         2.052187        -0.848356         0.072192
 H         4.312139         1.662366         3.304536
 H         4.467879        -0.059483         3.242162
 H         5.297553         0.886947         2.089956
 H         1.366088        -0.241614         2.457479
 H         1.340938         1.481116         2.212845
 H        -0.528471        -0.666137        -0.079187
 H        -0.663607         0.778817         0.912566
 H        -0.405340         0.906891        -0.839157
 H         3.922814         2.061030        -0.119873
 H         4.354003        -0.761487         0.215152
