19
Iteration:  3737charge 0 multiplicity 1
 C         4.337862         0.996026         2.658686
 C         3.344374         0.477317         1.638871
 C         1.827905         0.449203         1.969716
 C         1.227055         0.367347         0.444513
 C        -0.187013         0.278483        -0.097348
 O         1.898946         1.507973        -0.169916
 C         3.276537         1.244044         0.238654
 C         3.365718        -0.342752         0.300672
 O         2.024140        -0.749247        -0.090932
 H         4.186979         2.087649         2.797628
 H         4.217249         0.449533         3.616458
 H         5.376599         0.823311         2.278981
 H         1.679700        -0.474237         2.538377
 H         1.676614         1.351616         2.597071
 H        -0.191021         0.532989        -1.094642
 H        -0.627701        -0.712881         0.038717
 H        -0.628611         0.992930         0.497234
 H         3.924892         2.019933        -0.153053
 H         4.221258        -0.882071        -0.221381
