19
Iteration:  4726charge 0 multiplicity 1
 C         4.359600         0.838426         2.624555
 C         3.204437         0.594417         1.584688
 C         1.812957         0.485161         1.948511
 C         1.301662         0.391362         0.345735
 C        -0.170792         0.177471         0.093633
 O         1.907951         1.548564        -0.144596
 C         3.255711         1.238697         0.257618
 C         3.348751        -0.265443         0.308336
 O         2.106926        -0.719181        -0.129342
 H         4.024501         1.668470         3.323631
 H         4.478233        -0.089261         3.267117
 H         5.372785         1.135037         2.214215
 H         1.641250        -0.444611         2.464072
 H         1.457744         1.410363         2.388376
 H        -0.448831         0.604889        -0.971580
 H        -0.439509        -0.916768         0.047301
 H        -0.779501         0.877173         0.727871
 H         3.846115         1.836494        -0.351586
 H         4.180760        -0.900449        -0.117190
