19
Iteration:  2862charge 0 multiplicity 1
 C         4.370977         0.677505         2.683689
 C         3.191773         0.695793         1.615285
 C         1.734693         0.597247         1.831650
 C         1.271874         0.446469         0.444901
 C        -0.178228         0.286922         0.065480
 O         1.912581         1.385991        -0.325367
 C         3.256091         1.261331         0.115162
 C         3.390262        -0.176901         0.393688
 O         2.164512        -0.802287         0.065360
 H         4.550507         1.754697         2.928253
 H         3.950496         0.088656         3.514041
 H         5.191579         0.213018         2.117471
 H         1.511014        -0.250421         2.470051
 H         1.540611         1.483974         2.418843
 H        -0.481794        -0.719909        -0.234452
 H        -0.750479         0.520703         0.945078
 H        -0.330097         0.986443        -0.768306
 H         3.828853         1.918145        -0.465161
 H         4.227612        -0.825970         0.002800
