19
Iteration:  1131charge 0 multiplicity 1
 C         4.396658         0.119846         2.451901
 C         3.339957         0.441830         1.548527
 C         1.875515         0.000315         1.775605
 C         1.330686         0.376925         0.464416
 C        -0.138515        -0.002605        -0.012544
 O         1.671328         1.771800         0.481834
 C         3.029367         1.616102         0.613546
 C         3.439804         0.272186         0.052308
 O         2.192954        -0.256343        -0.507282
 H         4.099667         0.433217         3.484797
 H         4.740427        -0.868437         2.587619
 H         5.223195         0.720126         2.126321
 H         1.858164        -1.103276         1.950765
 H         1.530362         0.573730         2.657996
 H        -0.077025        -0.178605        -1.081570
 H        -0.441088        -0.983785         0.409751
 H        -0.956532         0.701124         0.178009
 H         3.631808         2.479289         0.575140
 H         4.194781         0.090228        -0.631788
