19
Iteration:  2103
 C         4.402370         0.659312         2.662465
 C         3.266439         0.541708         1.594738
 C         1.758593         0.486461         1.892002
 C         1.298190         0.400838         0.399493
 C        -0.256313         0.184576         0.067079
 O         1.863595         1.617865        -0.206240
 C         3.253621         1.301449         0.264316
 C         3.430657        -0.173117         0.239337
 O         2.133297        -0.677083        -0.067319
 H         4.488799         1.633889         3.267727
 H         4.106044        -0.161055         3.395669
 H         5.312163         0.302386         2.172395
 H         1.445807        -0.376015         2.465229
 H         1.484962         1.324301         2.505469
 H        -0.399761        -0.417828        -0.865885
 H        -0.581192        -0.353752         0.988143
 H        -0.849115         1.047417        -0.189802
 H         3.897221         1.990852        -0.195033
 H         4.222817        -0.875695        -0.037622
