19
Iteration:  2074charge 0 multiplicity 1
 C         4.295156         0.612468         2.626362
 C         3.214005         0.587635         1.576790
 C         1.800344         0.588653         1.929727
 C         1.324694         0.382157         0.446058
 C        -0.080712         0.078733         0.101596
 O         1.925260         1.650825        -0.111270
 C         3.294855         1.303496         0.246386
 C         3.315472        -0.210335         0.207618
 O         2.034131        -0.667122        -0.168064
 H         4.160864         1.334932         3.450923
 H         4.319356        -0.369914         2.950125
 H         5.270823         0.773846         2.135915
 H         1.506815        -0.174897         2.672822
 H         1.524037         1.590564         2.272672
 H        -0.073999        -0.958176        -0.319727
 H        -0.672366         0.081792         0.963279
 H        -0.546806         0.661429        -0.707512
 H         3.979820         2.143014         0.003354
 H         4.132216        -0.953284        -0.003905
