19
Iteration:  4944charge 0 multiplicity 1
 C         4.326099         0.681347         2.602971
 C         3.244527         0.560135         1.625576
 C         1.833851         0.679488         1.966197
 C         1.309528         0.375738         0.403969
 C        -0.157015         0.080059         0.086179
 O         1.936824         1.610418        -0.271810
 C         3.268365         1.270638         0.096446
 C         3.352336        -0.194419         0.292552
 O         2.049557        -0.738867         0.036262
 H         3.794410         1.197062         3.376470
 H         4.544415        -0.241517         3.118536
 H         5.267563         1.179682         2.413616
 H         1.413637        -0.239530         2.510339
 H         1.461629         1.714309         2.247603
 H        -0.327454         0.241864        -0.943490
 H        -0.351179        -1.048941         0.374733
 H        -0.969355         0.623211         0.580249
 H         4.002032         1.974733        -0.269977
 H         4.171291        -0.804202         0.037492
