19
Iteration:   884charge 0 multiplicity 1
 C         4.393248         0.221875         2.522997
 C         3.278750         0.331579         1.502647
 C         1.934813        -0.432816         1.675328
 C         1.315244         0.272720         0.418517
 C        -0.174564         0.178365         0.129538
 O         1.589749         1.637793         0.577119
 C         2.973580         1.639712         0.657724
 C         3.509102         0.417269        -0.006318
 O         2.295130        -0.044318        -0.667803
 H         4.155897         0.883543         3.412482
 H         4.493594        -0.862820         2.806794
 H         5.412869         0.604676         2.178654
 H         2.058497        -1.506536         1.621692
 H         1.442109        -0.108995         2.630100
 H        -0.517468        -0.414498        -0.705489
 H        -0.713572         0.118753         1.102647
 H        -0.291077         1.238188        -0.207430
 H         3.515100         2.545807         1.037607
 H         4.436841         0.461387        -0.664008
