19
Iteration:  2864
 C         4.351166         0.678641         2.665759
 C         3.200667         0.697093         1.617576
 C         1.744118         0.596973         1.824757
 C         1.270441         0.465714         0.454672
 C        -0.156177         0.285836         0.064064
 O         1.897902         1.386826        -0.317227
 C         3.254114         1.255205         0.119747
 C         3.384163        -0.167659         0.392640
 O         2.164384        -0.811975         0.055553
 H         4.550043         1.717022         2.928295
 H         3.938803         0.077327         3.518855
 H         5.206848         0.246313         2.127981
 H         1.501862        -0.227312         2.488909
 H         1.526891         1.478737         2.433484
 H        -0.391436        -0.726237        -0.236557
 H        -0.771677         0.532548         0.970707
 H        -0.276628         0.936493        -0.760345
 H         3.889116         1.858239        -0.468317
 H         4.167842        -0.862542         0.078844
