19
Iteration:   148charge 0 multiplicity 1
 C         4.646121        -0.167052         2.195454
 C         3.363559         0.177017         1.429285
 C         2.034390        -0.537695         1.338707
 C         1.253720         0.323135         0.402471
 C        -0.280002        -0.089902        -0.023171
 O         1.391126         1.592316         0.940855
 C         2.821193         1.708849         1.207359
 C         3.453149         0.828021         0.112409
 O         2.432107         0.442560        -0.773464
 H         4.464807        -0.119484         3.271861
 H         5.261902        -1.088916         1.895669
 H         5.339066         0.672142         1.991854
 H         2.119775        -1.585346         1.018294
 H         1.506896        -0.717032         2.359627
 H        -0.876680         0.458060         0.739982
 H        -0.480137         0.288571        -1.002605
 H        -0.495384        -1.147939         0.165998
 H         3.004188         2.604121         1.751258
 H         4.388590         1.192350        -0.240350
