19
Iteration:  1375charge 0 multiplicity 1
 C         4.333430         0.454358         2.488485
 C         3.224338         0.400684         1.536193
 C         1.811103        -0.088944         1.793858
 C         1.301648         0.385949         0.418597
 C        -0.098197         0.162873         0.048836
 O         1.731331         1.779097         0.351371
 C         3.148674         1.524681         0.605620
 C         3.455562         0.078622         0.124349
 O         2.191396        -0.440003        -0.504691
 H         4.216665         1.191134         3.193643
 H         4.695997        -0.500535         2.903051
 H         5.314587         0.755714         1.988319
 H         1.834827        -1.161552         1.970925
 H         1.218795         0.473005         2.512449
 H        -0.440140         0.856027        -0.758112
 H        -0.249751        -0.873368        -0.083085
 H        -0.595324         0.464510         1.040778
 H         3.670246         2.517783         0.499514
 H         4.364975        -0.175268        -0.436576
