19
Iteration:  1539charge 0 multiplicity 1
 C         4.394254         0.538848         2.623082
 C         3.324454         0.384622         1.593504
 C         1.835809         0.011200         1.853792
 C         1.328760         0.386250         0.429409
 C        -0.243530         0.182276         0.039765
 O         1.780706         1.726559         0.176480
 C         3.136849         1.487919         0.490537
 C         3.397303         0.077919         0.049991
 O         2.160020        -0.529365        -0.398410
 H         4.109623         1.266478         3.334129
 H         4.577745        -0.491989         3.030107
 H         5.471238         0.806249         2.252893
 H         1.508717        -1.012707         2.166151
 H         1.544648         0.706312         2.658762
 H        -0.257527        -0.842534        -0.346178
 H        -0.992246         0.337623         0.853503
 H        -0.387664         0.987144        -0.764327
 H         3.834823         2.252157         0.363493
 H         4.367539        -0.005921        -0.392877
