19
Iteration:   850
 C         4.484795         0.188720         2.470905
 C         3.273364         0.289057         1.524769
 C         1.896374        -0.280232         1.604785
 C         1.330773         0.411275         0.369190
 C        -0.146502        -0.006579         0.069361
 O         1.614088         1.791377         0.600366
 C         3.006331         1.595404         0.820040
 C         3.452583         0.323662         0.028420
 O         2.225984        -0.054534        -0.660080
 H         4.187307         0.473074         3.464956
 H         4.749265        -0.924752         2.642568
 H         5.450519         0.749642         2.154136
 H         2.016257        -1.371651         1.496424
 H         1.377260        -0.057340         2.532878
 H        -0.410448        -0.984046         0.453711
 H        -0.808833         0.715575         0.627230
 H        -0.423046         0.192761        -0.996662
 H         3.500994         2.536495         1.062228
 H         4.259879         0.633766        -0.561567
