19
Iteration:  1414charge 0 multiplicity 1
 C         4.459100         0.277006         2.625398
 C         3.371556         0.426815         1.603699
 C         1.882209         0.034774         1.888058
 C         1.287197         0.353753         0.431662
 C        -0.155968         0.195805         0.007191
 O         1.596200         1.717565         0.229942
 C         3.082387         1.636941         0.513381
 C         3.427620         0.160327         0.044561
 O         2.223986        -0.502162        -0.441961
 H         4.314862         1.133255         3.446679
 H         4.282203        -0.662055         3.152297
 H         5.320155         0.407577         2.037668
 H         1.842179        -1.024859         2.215703
 H         1.520214         0.620505         2.762079
 H        -0.669534         1.153257        -0.123294
 H        -0.179041        -0.141546        -1.080697
 H        -0.734270        -0.490027         0.557397
 H         3.628759         2.521185         0.286960
 H         4.217422         0.001207        -0.660036
