19
Iteration:   390
 C         4.499745        -0.017017         2.420544
 C         3.427585         0.273568         1.419319
 C         2.021576        -0.568861         1.424284
 C         1.330823         0.296683         0.504345
 C        -0.070174         0.099194        -0.045943
 O         1.485041         1.615983         1.020647
 C         2.881292         1.708619         0.988976
 C         3.351331         0.682260        -0.125413
 O         2.233608         0.164721        -0.734633
 H         4.135149         0.310276         3.370198
 H         4.692159        -1.077115         2.617404
 H         5.344042         0.688105         2.141157
 H         1.892476        -1.581345         0.920857
 H         1.536362        -0.437171         2.453960
 H        -0.883263        -0.129088         0.640612
 H        -0.190921         1.043674        -0.631891
 H         0.088115        -0.684042        -0.822090
 H         3.343321         2.664546         1.055204
 H         4.147703         1.027855        -0.766374
