19
Iteration:    17
 C         4.711196        -0.196940         2.162102
 C         3.335772         0.195409         1.506783
 C         2.085363        -0.748714         1.205697
 C         1.289462         0.303892         0.382184
 C        -0.115887        -0.054736         0.012984
 O         1.369939         1.593302         0.976524
 C         2.761930         1.594458         1.363336
 C         3.385902         1.046059         0.064914
 O         2.298134         0.548593        -0.754508
 H         4.782662        -0.331323         3.263903
 H         4.965693        -1.249554         1.725929
 H         5.421468         0.593142         1.858702
 H         2.417901        -1.435931         0.385242
 H         1.522719        -1.151655         2.090001
 H        -0.479697        -0.831322         0.711405
 H        -0.811218         0.801086         0.058132
 H        -0.199588        -0.380526        -1.044907
 H         3.050129         2.377703         2.109504
 H         4.100130         1.692865        -0.496268
