19
Iteration:  2596
 C         4.364095         0.846109         2.687384
 C         3.318752         0.486427         1.573034
 C         1.786291         0.647263         1.903470
 C         1.306789         0.465807         0.456957
 C        -0.162016         0.182465         0.033684
 O         1.942637         1.506519        -0.218819
 C         3.260639         1.239318         0.193749
 C         3.297053        -0.329995         0.288344
 O         2.013690        -0.744809        -0.058559
 H         3.949580         1.648740         3.405205
 H         4.542947        -0.095611         3.262339
 H         5.384639         1.150753         2.279794
 H         1.300877        -0.131345         2.501822
 H         1.526675         1.624419         2.298677
 H        -0.854644        -0.028063         0.850030
 H        -0.487132         1.090667        -0.577546
 H        -0.051370        -0.659312        -0.604586
 H         4.116609         1.773038        -0.216022
 H         4.128411        -1.038901         0.162328
