19
Iteration:  1592charge 0 multiplicity 1
 C         4.409567         0.335948         2.593936
 C         3.271405         0.567447         1.619598
 C         1.795908         0.192286         1.847452
 C         1.321006         0.371277         0.388499
 C        -0.235547         0.084661         0.049108
 O         1.808463         1.723479         0.101040
 C         3.098609         1.514529         0.510312
 C         3.401376         0.045480         0.051766
 O         2.216842        -0.495143        -0.311800
 H         4.472230         1.171056         3.338587
 H         4.331757        -0.541173         3.273130
 H         5.414875         0.346911         2.057637
 H         1.874190        -0.908411         2.075324
 H         1.317905         0.706589         2.697919
 H        -0.229377        -0.022566        -1.009228
 H        -0.534874        -0.826092         0.508957
 H        -0.846083         0.951223         0.410994
 H         3.666622         2.387866         0.320246
 H         4.296609        -0.264504        -0.463943
