19
Iteration:  2520charge 0 multiplicity 1
 C         4.350727         0.738871         2.648138
 C         3.268512         0.697219         1.560799
 C         1.702349         0.603008         1.857294
 C         1.263862         0.265512         0.494739
 C        -0.244054         0.249739         0.079368
 O         2.000817         1.496913        -0.262459
 C         3.327827         1.252322         0.177542
 C         3.365490        -0.319627         0.321018
 O         2.065349        -0.718561        -0.010434
 H         4.194692         1.810775         2.980397
 H         4.197321         0.083005         3.453897
 H         5.408358         0.693834         2.277513
 H         1.620599        -0.184036         2.584938
 H         1.236295         1.517309         2.200459
 H        -0.739899        -0.615780         0.440910
 H        -0.581141         1.285856         0.318169
 H        -0.137129         0.134500        -0.988844
 H         4.081712         1.905948        -0.378073
 H         4.163466        -0.961239         0.374366
