19
Iteration:  3016charge 0 multiplicity 1
 C         4.256852         0.709540         2.619941
 C         3.301797         0.616502         1.587320
 C         1.716374         0.585280         1.830139
 C         1.351102         0.429912         0.354011
 C        -0.191137         0.100053         0.094868
 O         1.980460         1.670683        -0.182467
 C         3.257443         1.245367         0.214573
 C         3.337333        -0.305066         0.374453
 O         2.062740        -0.719952        -0.028780
 H         4.564532         1.769606         2.830167
 H         4.402859         0.109712         3.564961
 H         5.146427         0.400800         2.007618
 H         1.452388        -0.221542         2.486890
 H         1.401989         1.495586         2.284879
 H        -0.581460        -0.187024         1.047407
 H        -0.810542         0.739486        -0.582359
 H        -0.153010        -0.820104        -0.412900
 H         4.214235         1.767233        -0.195539
 H         4.230394        -0.863189         0.011868
