19
Iteration:  3864charge 0 multiplicity 1
 C         4.343715         0.737915         2.652619
 C         3.213519         0.589347         1.657677
 C         1.686964         0.524115         1.926915
 C         1.292319         0.424806         0.362949
 C        -0.088988         0.176147         0.119614
 O         1.903834         1.427457        -0.302665
 C         3.299171         1.336997         0.233151
 C         3.351041        -0.156341         0.278289
 O         2.102926        -0.720359        -0.060751
 H         4.384107         1.535930         3.443534
 H         4.633732        -0.165897         3.220871
 H         5.226647         0.910770         2.014358
 H         1.254040        -0.239850         2.603237
 H         1.130906         1.426539         2.173246
 H        -0.258601        -0.193428        -1.005668
 H        -0.533830        -0.577357         0.870075
 H        -0.646414         1.136054         0.314993
 H         4.137800         1.935911        -0.050582
 H         4.307795        -0.706507         0.016539
