19
Iteration:  1822charge 0 multiplicity 1
 C         4.320468         0.571300         2.635616
 C         3.275382         0.569415         1.572132
 C         1.804319         0.148434         1.802977
 C         1.302588         0.299467         0.398228
 C        -0.133572         0.360584         0.089513
 O         1.820916         1.603154         0.054741
 C         3.154175         1.468857         0.264925
 C         3.403951        -0.023827         0.158410
 O         2.173047        -0.660468        -0.154195
 H         4.141154         1.161993         3.642841
 H         4.737977        -0.416410         2.938618
 H         5.285978         0.980290         2.133859
 H         1.896483        -0.890197         2.242700
 H         1.193432         0.773192         2.505345
 H        -0.454482        -0.482958        -0.510647
 H        -0.894359         0.177486         0.947248
 H        -0.365018         1.211969        -0.544263
 H         3.729386         2.296935        -0.050726
 H         4.216425        -0.644654        -0.207360
