19
Iteration:  4946charge 0 multiplicity 1
 C         4.322775         0.668135         2.602374
 C         3.236388         0.588251         1.608788
 C         1.835538         0.665947         1.950892
 C         1.328479         0.368613         0.421784
 C        -0.143934         0.092552         0.074311
 O         1.929229         1.588743        -0.265315
 C         3.270201         1.282432         0.094368
 C         3.357706        -0.177768         0.313074
 O         2.034150        -0.744041         0.041768
 H         3.812583         1.195795         3.410177
 H         4.533377        -0.275651         3.100452
 H         5.261232         1.195499         2.405779
 H         1.460790        -0.178869         2.495644
 H         1.496744         1.644614         2.222422
 H        -0.340023         0.223689        -0.986056
 H        -0.417404        -0.991049         0.346821
 H        -0.934390         0.646173         0.630197
 H         3.934496         1.996445        -0.270334
 H         4.213625        -0.852956        -0.001114
