19
Iteration:  1426
 C         4.386339         0.270113         2.572113
 C         3.282777         0.469550         1.498082
 C         1.911741         0.103966         1.821617
 C         1.294551         0.341076         0.441936
 C        -0.124327         0.129737        -0.004296
 O         1.691797         1.711644         0.282600
 C         3.045921         1.544915         0.513034
 C         3.391014         0.178078         0.046163
 O         2.220923        -0.426863        -0.349817
 H         4.390799         1.080621         3.404882
 H         4.438290        -0.710589         3.030204
 H         5.390744         0.311005         2.226113
 H         1.755991        -0.967544         1.998885
 H         1.389150         0.776910         2.535255
 H        -0.686580         1.005646         0.383955
 H        -0.088871        -0.061665        -1.071401
 H        -0.552937        -0.700608         0.472069
 H         3.670857         2.425529         0.319460
 H         4.345752        -0.170277        -0.318474
