19
Iteration:  2242
 C         4.342631         0.589650         2.631757
 C         3.200316         0.645234         1.604970
 C         1.728742         0.576738         1.921644
 C         1.275596         0.390848         0.465276
 C        -0.161279         0.292218         0.124900
 O         1.837837         1.460775        -0.335687
 C         3.280568         1.319020         0.102995
 C         3.399757        -0.181021         0.337119
 O         2.212419        -0.754684        -0.004390
 H         4.204802         1.338970         3.386028
 H         4.381431        -0.432542         3.173281
 H         5.294733         0.805480         2.155158
 H         1.229336        -0.230354         2.602998
 H         1.511018         1.626508         2.363647
 H        -0.698523         1.023600         0.812128
 H        -0.204241         0.445170        -1.078098
 H        -0.721756        -0.667444         0.380979
 H         3.977383         1.944563        -0.401832
 H         4.345862        -0.772212         0.342905
