19
Iteration:  2870charge 0 multiplicity 1
 C         4.254801         0.688258         2.586552
 C         3.264101         0.692111         1.595190
 C         1.781453         0.615581         1.872736
 C         1.269378         0.480875         0.466533
 C        -0.085489         0.276291         0.086952
 O         1.858036         1.425452        -0.294176
 C         3.248929         1.248018         0.134593
 C         3.348081        -0.192628         0.376918
 O         2.147994        -0.832257         0.028373
 H         4.592329         1.663321         3.062132
 H         4.053579         0.080964         3.459311
 H         5.269259         0.333315         2.284065
 H         1.445817        -0.243364         2.492395
 H         1.303129         1.516236         2.353948
 H        -0.063497        -0.802288        -0.228855
 H        -0.814073         0.555700         0.818909
 H        -0.251811         0.890443        -0.871626
 H         4.129183         1.725861        -0.390333
 H         4.180323        -0.941508         0.402700
