19
Iteration:  3890
 C         4.311570         0.878172         2.483594
 C         3.184027         0.567802         1.607783
 C         1.753945         0.416870         1.865167
 C         1.274162         0.324479         0.315570
 C        -0.219247         0.313785         0.097233
 O         1.944007         1.524180        -0.178153
 C         3.269034         1.256016         0.251944
 C         3.397059        -0.240067         0.427349
 O         2.189709        -0.771348        -0.069664
 H         4.358758         1.856945         2.935553
 H         4.315307         0.194402         3.318947
 H         5.288082         0.766048         1.996127
 H         1.546933        -0.467753         2.438357
 H         1.112648         1.196651         2.289493
 H        -0.478499         0.393193        -0.911029
 H        -0.703751        -0.546245         0.602141
 H        -0.605545         1.208218         0.582554
 H         4.083480         2.003152         0.271694
 H         4.219182        -0.886969         0.417390
