19
Iteration:   707
 C         4.406580         0.144074         2.544481
 C         3.338176         0.310119         1.393090
 C         2.021371        -0.433786         1.620644
 C         1.305598         0.256483         0.445875
 C        -0.054859         0.149084        -0.025517
 O         1.606410         1.711808         0.760877
 C         2.959467         1.644661         0.850464
 C         3.386257         0.440290        -0.057269
 O         2.123720         0.050447        -0.713120
 H         3.973134         0.649447         3.314520
 H         4.640438        -0.925530         2.743771
 H         5.422747         0.577560         2.246760
 H         2.146237        -1.559500         1.513793
 H         1.745658        -0.302722         2.644139
 H         0.148201         0.301830        -1.110647
 H        -0.240833        -0.860645         0.362055
 H        -0.776989         0.782086         0.510592
 H         3.424877         2.633649         0.995347
 H         4.387801         0.387692        -0.671649
