19
Iteration:  3867charge 0 multiplicity 1
 C         4.346786         0.743201         2.639439
 C         3.197595         0.595982         1.663680
 C         1.656209         0.498856         1.918034
 C         1.303769         0.407530         0.364656
 C        -0.076074         0.196578         0.130780
 O         1.911938         1.437421        -0.316854
 C         3.289410         1.347039         0.268159
 C         3.369600        -0.190863         0.282302
 O         2.101558        -0.730479        -0.065178
 H         4.455253         1.590886         3.314479
 H         4.625931        -0.091862         3.242953
 H         5.193767         0.957964         1.973240
 H         1.179077        -0.246485         2.523404
 H         1.117961         1.421552         2.225700
 H        -0.256296        -0.054455        -0.916419
 H        -0.487121        -0.560556         0.910046
 H        -0.584669         1.134831         0.333806
 H         4.112725         1.967832        -0.117878
 H         4.297130        -0.642010        -0.020266
