19
Iteration:  3767charge 0 multiplicity 1
 C         4.338369         0.906502         2.477598
 C         3.075877         0.660097         1.659097
 C         1.546203         0.433030         1.841966
 C         1.316367         0.337279         0.358373
 C        -0.084879         0.275857         0.163906
 O         1.984161         1.562515        -0.196985
 C         3.326696         1.260926         0.307006
 C         3.401923        -0.302489         0.365032
 O         2.164664        -0.822915        -0.095128
 H         4.576839         1.831632         3.024134
 H         4.495330         0.125981         3.213442
 H         5.177335         0.666987         1.831645
 H         1.408840        -0.561247         2.319752
 H         0.980460         1.185048         2.370396
 H        -0.452843         0.314107        -0.947203
 H        -0.538943        -0.636210         0.652416
 H        -0.441455         1.168322         0.729167
 H         4.029720         2.052777         0.013594
 H         4.257220        -0.864913        -0.044642
