19
Iteration:  4282
 C         4.353116         0.721058         2.616368
 C         3.239983         0.641546         1.617705
 C         1.724642         0.574394         1.857889
 C         1.286829         0.418069         0.380096
 C        -0.142158         0.130325         0.122075
 O         1.936955         1.546299        -0.173739
 C         3.267420         1.283902         0.215933
 C         3.340777        -0.239638         0.366262
 O         2.100848        -0.703254        -0.137356
 H         4.613793         1.739341         3.046937
 H         4.116351         0.081382         3.523415
 H         5.317943         0.347204         2.144162
 H         1.454305        -0.252433         2.537001
 H         1.341519         1.539081         2.251787
 H        -0.367241        -0.187554        -0.943288
 H        -0.257555        -0.816304         0.612224
 H        -0.929769         0.753122         0.555709
 H         3.973116         1.807922        -0.421198
 H         4.204310        -0.876249         0.117369
