19
Iteration:  1456
 C         4.415893         0.287083         2.567012
 C         3.201635         0.441942         1.587584
 C         1.823883         0.139385         1.918186
 C         1.282033         0.442127         0.422582
 C        -0.110582         0.010044         0.099085
 O         1.767225         1.784647         0.169897
 C         3.166727         1.522907         0.528675
 C         3.350028         0.090269         0.099615
 O         2.214780        -0.371529        -0.501575
 H         4.233571         0.923204         3.525702
 H         4.698029        -0.733128         2.911626
 H         5.181244         0.722078         1.939792
 H         1.710777        -0.946913         2.044063
 H         1.280954         0.737989         2.661997
 H        -0.809769        -0.009038         0.935781
 H        -0.634191         0.488499        -0.833176
 H        -0.161618        -1.048649        -0.166065
 H         3.835255         2.320904         0.348108
 H         4.315054        -0.267607        -0.170004
