19
Iteration:  2331charge 0 multiplicity 1
 C         4.348594         0.849345         2.597813
 C         3.193423         0.689550         1.631298
 C         1.718383         0.399392         1.870811
 C         1.291003         0.218284         0.454976
 C        -0.102549         0.374839         0.084448
 O         1.975551         1.552826        -0.234148
 C         3.219988         1.195432         0.169369
 C         3.407758        -0.203071         0.350128
 O         2.036227        -0.815330        -0.017183
 H         4.470833         1.836104         2.994586
 H         4.363515         0.211978         3.521606
 H         5.291986         0.641403         2.117244
 H         1.478274        -0.604514         2.316182
 H         1.311435         1.342645         2.281848
 H        -0.669691         0.350056         1.040233
 H        -0.146030         1.363877        -0.465089
 H        -0.485445        -0.315582        -0.684953
 H         4.076343         1.808244        -0.267713
 H         4.117249        -0.753123        -0.170128
