19
Iteration:  1832charge 0 multiplicity 1
 C         4.416830         0.627013         2.672492
 C         3.255006         0.603736         1.501704
 C         1.822634         0.169886         1.859212
 C         1.288339         0.275075         0.454780
 C        -0.156772         0.355081         0.058981
 O         1.821793         1.619524        -0.004611
 C         3.134791         1.426590         0.363838
 C         3.425919        -0.116715         0.180111
 O         2.124940        -0.672706        -0.246063
 H         3.903122         1.030965         3.663639
 H         4.526570        -0.443473         2.819379
 H         5.340483         1.216968         2.359135
 H         1.743106        -0.918234         2.141411
 H         1.317279         0.881844         2.551475
 H        -0.270021        -0.407252        -0.716371
 H        -0.743191         0.117022         1.066416
 H        -0.393335         1.408286        -0.243229
 H         3.735062         2.234481         0.101738
 H         4.369348        -0.380263        -0.263191
