19
Iteration:  4708
 C         4.362920         0.857740         2.540129
 C         3.184092         0.497431         1.635478
 C         1.652899         0.443793         1.863406
 C         1.330924         0.394687         0.471418
 C        -0.180781         0.132326         0.118850
 O         2.004019         1.607709        -0.132748
 C         3.293588         1.253921         0.236575
 C         3.392055        -0.256407         0.305695
 O         2.058557        -0.668620        -0.187454
 H         4.127540         1.881212         2.846309
 H         4.616590         0.242735         3.391607
 H         5.254552         0.928640         1.907968
 H         1.272720        -0.398845         2.464514
 H         1.251847         1.420695         2.155638
 H        -0.364703         0.264497        -0.869563
 H        -0.322636        -0.911264         0.508285
 H        -0.761066         0.678451         0.855466
 H         4.189537         1.939447         0.281993
 H         4.225147        -0.977888         0.083393
