19
Iteration:   912charge 0 multiplicity 1
 C         4.459809         0.192826         2.578158
 C         3.376963         0.327357         1.487063
 C         1.990283        -0.326137         1.636456
 C         1.258756         0.349599         0.448498
 C        -0.147169         0.079548        -0.027929
 O         1.615491         1.753580         0.641796
 C         2.990124         1.665736         0.759606
 C         3.436464         0.433984        -0.077686
 O         2.150551        -0.189428        -0.622096
 H         4.149040         0.734937         3.448163
 H         4.647718        -0.881863         2.718783
 H         5.463554         0.525966         2.307139
 H         1.937155        -1.434926         1.805479
 H         1.562988         0.198291         2.479113
 H        -0.012157         0.101555        -1.116476
 H        -0.686548        -0.721036         0.442488
 H        -0.716769         0.989461         0.211209
 H         3.622757         2.507988         0.949813
 H         4.302048         0.281986        -0.637717
