19
Iteration:  1167
 C         4.384260         0.217810         2.524226
 C         3.274536         0.313341         1.555908
 C         1.813655        -0.103714         1.789232
 C         1.290014         0.322850         0.400835
 C        -0.117052         0.064346         0.155507
 O         1.709486         1.763851         0.304697
 C         3.034655         1.586019         0.585480
 C         3.478940         0.275348         0.078270
 O         2.233766        -0.182510        -0.497682
 H         4.251387         0.721050         3.438255
 H         4.876395        -0.800496         2.500881
 H         5.135897         0.947370         2.002980
 H         1.598523        -1.148839         1.784831
 H         1.221077         0.280334         2.606320
 H        -0.463622         0.903872        -0.448892
 H        -0.100685        -0.827788        -0.468830
 H        -0.724382        -0.102029         1.000640
 H         3.690608         2.489290         0.677150
 H         4.429034         0.125754        -0.508880
