19
Iteration:  4599charge 0 multiplicity 1
 C         4.376665         0.774660         2.581090
 C         3.169154         0.610366         1.644106
 C         1.771398         0.528050         1.879005
 C         1.306364         0.405224         0.334819
 C        -0.197018         0.066844         0.187700
 O         2.013506         1.612144        -0.150792
 C         3.277814         1.292409         0.221452
 C         3.327960        -0.230495         0.370979
 O         2.072461        -0.677399        -0.222221
 H         4.264574         1.286604         3.506640
 H         4.602037        -0.223814         2.881482
 H         5.266097         1.084044         2.067258
 H         1.490296        -0.329474         2.560819
 H         1.208164         1.392500         2.280063
 H        -0.453515        -0.239345        -0.764922
 H        -0.386124        -0.834053         0.862740
 H        -1.044600         0.722619         0.389215
 H         4.138749         1.840811         0.043103
 H         4.072602        -1.035713         0.070268
