19
Iteration:  2257
 C         4.258087         0.680543         2.566758
 C         3.252720         0.693352         1.539270
 C         1.776655         0.581063         1.863937
 C         1.310690         0.393062         0.398093
 C        -0.207973         0.269269         0.096753
 O         1.943555         1.508422        -0.172521
 C         3.252279         1.227073         0.154426
 C         3.412897        -0.229773         0.407411
 O         2.121331        -0.765350        -0.000500
 H         4.293647         1.516945         3.315522
 H         4.197408        -0.235605         3.121937
 H         5.258910         0.622186         2.108489
 H         1.737675        -0.310782         2.455709
 H         1.231711         1.428229         2.175474
 H        -0.841527         0.762523         0.855423
 H        -0.488938         0.587061        -0.888301
 H        -0.386312        -0.807367         0.093780
 H         3.994169         1.976813        -0.296636
 H         4.221883        -0.829611         0.074611
