19
Iteration:  1441
 C         4.321331         0.306556         2.485622
 C         3.251216         0.496376         1.572394
 C         1.753626         0.050996         1.899176
 C         1.314039         0.333467         0.444352
 C        -0.123923         0.025370         0.062741
 O         1.755459         1.773227         0.262665
 C         3.193120         1.599025         0.451049
 C         3.471290         0.108966         0.074970
 O         2.177395        -0.368147        -0.395805
 H         4.277751         0.939605         3.314674
 H         4.258795        -0.786557         2.791803
 H         5.373327         0.472299         2.074508
 H         1.673758        -0.976221         2.297648
 H         1.303433         0.719319         2.635639
 H        -0.820270         0.682414         0.608639
 H        -0.205355         0.378384        -0.972407
 H        -0.170095        -1.115916         0.211096
 H         3.833265         2.501523         0.373937
 H         4.296198        -0.345013        -0.519493
