19
Iteration:  1880charge 0 multiplicity 1
 C         4.342999         0.600137         2.597436
 C         3.246721         0.506603         1.560052
 C         1.782770         0.359421         1.930798
 C         1.318052         0.434356         0.328833
 C        -0.118836         0.078332         0.095017
 O         1.870055         1.752485         0.037140
 C         3.280212         1.333266         0.384397
 C         3.320337        -0.140115         0.166463
 O         2.090692        -0.630634        -0.238047
 H         3.982152         1.228212         3.372486
 H         4.593559        -0.468472         2.911414
 H         5.206868         1.120012         2.060350
 H         1.607236        -0.657383         2.302969
 H         1.266378         1.157032         2.487506
 H        -0.252153         0.411902        -0.948337
 H        -0.285346        -0.915345         0.241966
 H        -0.728552         0.668626         0.747579
 H         3.971344         2.180984         0.120353
 H         4.117180        -0.753764        -0.270757
