19
Iteration:  1838charge 0 multiplicity 1
 C         4.394830         0.639247         2.642521
 C         3.282564         0.558548         1.599635
 C         1.835199         0.200428         1.915092
 C         1.297523         0.317961         0.455642
 C        -0.176134         0.307507         0.067684
 O         1.785123         1.615208        -0.034569
 C         3.157071         1.432844         0.359822
 C         3.430833        -0.134731         0.171901
 O         2.125757        -0.667092        -0.304107
 H         3.952726         1.081009         3.486602
 H         4.627162        -0.431234         2.819376
 H         5.267773         1.253202         2.558710
 H         1.648003        -0.813551         2.211055
 H         1.409483         0.877101         2.644200
 H        -0.358581        -0.252884        -0.869659
 H        -0.759551         0.111892         0.906564
 H        -0.421689         1.370053        -0.115219
 H         3.967705         2.188809         0.136783
 H         4.345792        -0.439924        -0.345094
