19
Iteration:  3891
 C         4.305498         0.881473         2.487920
 C         3.186920         0.571496         1.604360
 C         1.759514         0.409712         1.868711
 C         1.275092         0.326008         0.320909
 C        -0.233100         0.311171         0.088344
 O         1.936155         1.522214        -0.169598
 C         3.286478         1.252069         0.248580
 C         3.394705        -0.244229         0.422298
 O         2.189315        -0.770645        -0.070399
 H         4.382995         1.881555         2.900906
 H         4.309186         0.192213         3.334186
 H         5.286283         0.787206         1.997191
 H         1.541484        -0.480187         2.456179
 H         1.123058         1.203468         2.292528
 H        -0.477246         0.442343        -0.901536
 H        -0.671267        -0.520316         0.580962
 H        -0.611239         1.207072         0.561856
 H         4.097916         2.022710         0.242450
 H         4.232019        -0.886877         0.441957
