19
Iteration:  4734
 C         4.360201         0.783133         2.670237
 C         3.277782         0.651532         1.588321
 C         1.845433         0.459132         1.904521
 C         1.306764         0.422375         0.454325
 C        -0.219673         0.231531         0.040724
 O         1.889841         1.500051        -0.175106
 C         3.184870         1.298970         0.165014
 C         3.385317        -0.240823         0.270656
 O         2.102856        -0.785054        -0.083360
 H         3.916782         1.509489         3.347930
 H         4.493402        -0.131256         3.256289
 H         5.317171         1.158991         2.357754
 H         1.616979        -0.461810         2.484415
 H         1.418257         1.389363         2.398233
 H        -0.143834         0.655446        -1.008903
 H        -0.531872        -0.772567         0.090823
 H        -0.887499         0.714283         0.772877
 H         3.899678         2.026474        -0.181389
 H         4.248526        -0.828266         0.054103
