19
Iteration:  1722charge 0 multiplicity 1
 C         4.413957         0.447274         2.669495
 C         3.278747         0.525435         1.619970
 C         1.814368         0.146272         1.941641
 C         1.316953         0.287073         0.465907
 C        -0.113350         0.286933         0.057459
 O         1.761004         1.643122         0.026880
 C         3.068484         1.492037         0.318181
 C         3.398066         0.035586         0.064150
 O         2.201007        -0.569418        -0.276964
 H         4.508514         1.352238         3.364989
 H         4.363795        -0.480063         3.221717
 H         5.451333         0.465095         2.385362
 H         1.513546        -0.845819         2.345637
 H         1.264079         0.927834         2.524444
 H        -0.877616         0.226414         0.813827
 H        -0.390931         1.066567        -0.670287
 H        -0.409177        -0.672816        -0.460551
 H         3.705710         2.359094        -0.056503
 H         4.270134        -0.241740        -0.541975
