19
Iteration:  2511
 C         4.305917         0.815175         2.651998
 C         3.266638         0.657012         1.552060
 C         1.795847         0.586991         1.902513
 C         1.288871         0.350386         0.454812
 C        -0.175101         0.246623         0.042484
 O         1.967539         1.530742        -0.167116
 C         3.363542         1.208458         0.099216
 C         3.346399        -0.309598         0.396674
 O         2.022391        -0.781927        -0.056607
 H         4.302340         1.883377         2.956284
 H         4.158289         0.222243         3.482567
 H         5.246228         0.607683         2.132530
 H         1.449881        -0.252197         2.476976
 H         1.204753         1.458412         2.141072
 H        -0.631352        -0.637498         0.444830
 H        -0.932470         1.005470         0.414382
 H        -0.267304         0.276804        -1.016518
 H         4.175192         1.827133        -0.288393
 H         4.073244        -1.062708         0.205920
