19
Iteration:   925charge 0 multiplicity 1
 C         4.450450         0.147955         2.476719
 C         3.330103         0.289841         1.444665
 C         1.862254        -0.260451         1.775929
 C         1.302190         0.324288         0.487326
 C        -0.100203         0.045936        -0.059710
 O         1.604440         1.799478         0.597929
 C         3.054998         1.607577         0.703990
 C         3.418983         0.412400        -0.077133
 O         2.223306        -0.089023        -0.506705
 H         4.155815         0.574135         3.366876
 H         4.686272        -0.905722         2.792388
 H         5.343981         0.765270         2.151933
 H         1.757298        -1.338492         1.527657
 H         1.514541        -0.062207         2.762686
 H        -0.155626         0.156767        -1.120162
 H        -0.282136        -1.022746         0.064975
 H        -0.869983         0.671043         0.431963
 H         3.517676         2.570070         0.991946
 H         4.176061         0.423293        -0.873440
