19
Iteration:  4393charge 0 multiplicity 1
 C         4.322459         0.887411         2.530817
 C         3.209198         0.517621         1.602963
 C         1.674116         0.422813         1.897635
 C         1.329879         0.346912         0.461204
 C        -0.156544         0.202483         0.171970
 O         1.992432         1.580815        -0.192592
 C         3.272613         1.235214         0.239015
 C         3.374775        -0.236178         0.347457
 O         2.088387        -0.705875        -0.158591
 H         4.037940         1.621331         3.328968
 H         4.613138        -0.041449         3.092467
 H         5.167598         1.198464         1.880262
 H         1.382749        -0.491684         2.399892
 H         1.273456         1.307333         2.291800
 H        -0.286781         0.173735        -0.854612
 H        -0.610079        -0.674116         0.700239
 H        -0.506989         1.185933         0.407248
 H         3.988182         1.962311        -0.181445
 H         4.250392        -0.784937         0.105088
