19
Iteration:  4288charge 0 multiplicity 1
 C         4.402348         0.691344         2.646050
 C         3.220540         0.642954         1.664688
 C         1.689938         0.590220         1.874063
 C         1.305707         0.366971         0.337161
 C        -0.177317         0.120020         0.144448
 O         1.914186         1.551619        -0.229170
 C         3.272933         1.271230         0.158217
 C         3.360980        -0.185103         0.369880
 O         2.128805        -0.706693        -0.101955
 H         4.648760         1.669480         2.984128
 H         4.209950        -0.027181         3.412738
 H         5.322536         0.358841         2.217982
 H         1.138037        -0.255584         2.362254
 H         1.355838         1.469216         2.492557
 H        -0.326647         0.095309        -0.931779
 H        -0.398566        -0.883324         0.610973
 H        -0.787084         0.904335         0.642431
 H         3.991242         1.960009        -0.357080
 H         4.176483        -0.803862         0.091244
