19
Iteration:  3978
 C         4.382369         0.653788         2.655918
 C         3.190246         0.686450         1.619395
 C         1.682398         0.625477         1.855329
 C         1.366318         0.305201         0.349663
 C        -0.128664         0.215362         0.163741
 O         1.946027         1.495613        -0.354770
 C         3.202891         1.396514         0.281527
 C         3.344256        -0.256837         0.415605
 O         2.119564        -0.755401        -0.098908
 H         4.408361         1.479943         3.322918
 H         4.421347        -0.291357         3.203287
 H         5.242746         0.703154         1.968779
 H         1.428522        -0.305827         2.373139
 H         1.152638         1.464151         2.315586
 H        -0.399087         0.115020        -0.873539
 H        -0.361205        -0.789479         0.622637
 H        -0.616514         1.014355         0.799296
 H         3.801709         2.092612        -0.323449
 H         4.314105        -0.862227         0.314375
