19
Iteration:  3986charge 0 multiplicity 1
 C         4.385601         0.620548         2.566672
 C         3.180345         0.641703         1.636367
 C         1.697890         0.613009         1.835042
 C         1.313374         0.395753         0.346942
 C        -0.098085         0.224803         0.179501
 O         1.950701         1.434254        -0.398597
 C         3.155232         1.423252         0.306101
 C         3.359481        -0.224974         0.440157
 O         2.173468        -0.782028        -0.062428
 H         4.326856         1.363829         3.386545
 H         4.349244        -0.293694         3.153989
 H         5.398700         0.826167         2.175157
 H         1.281180        -0.233828         2.326532
 H         1.245247         1.492414         2.300838
 H        -0.484628         0.091559        -0.819908
 H        -0.557056        -0.664906         0.801941
 H        -0.788140         1.017650         0.611893
 H         3.928707         2.227755         0.069990
 H         4.310530        -0.621938         0.194861
