19
Iteration:  3863charge 0 multiplicity 1
 C         4.344363         0.736734         2.655989
 C         3.216394         0.588702         1.655139
 C         1.696541         0.532910         1.927009
 C         1.292293         0.426106         0.366005
 C        -0.098856         0.168796         0.114183
 O         1.902833         1.428754        -0.298290
 C         3.298257         1.330184         0.223889
 C         3.348502        -0.147753         0.279155
 O         2.104588        -0.717788        -0.059599
 H         4.347470         1.520282         3.469441
 H         4.628059        -0.198226         3.212300
 H         5.242779         0.897652         2.030050
 H         1.285850        -0.248130         2.619425
 H         1.146743         1.442287         2.168510
 H        -0.257928        -0.223441        -0.993903
 H        -0.532617        -0.564608         0.831339
 H        -0.663022         1.126173         0.302206
 H         4.142726         1.940625        -0.040131
 H         4.288564        -0.723934         0.030937
