19
Iteration:  4097charge 0 multiplicity 1
 C         4.442967         0.842138         2.606541
 C         3.156575         0.651288         1.662456
 C         1.663700         0.429467         1.954422
 C         1.299719         0.325848         0.408175
 C        -0.208125         0.320671         0.143811
 O         1.900454         1.393504        -0.301356
 C         3.309447         1.290389         0.209313
 C         3.348521        -0.209272         0.440752
 O         2.187777        -0.731012        -0.239199
 H         4.531252         1.835967         2.985275
 H         4.247070         0.222799         3.456542
 H         5.316020         0.536008         2.040330
 H         1.443932        -0.426112         2.538806
 H         1.050460         1.204385         2.362656
 H        -0.418044         0.386797        -0.935791
 H        -0.625267        -0.545760         0.608751
 H        -0.548642         1.137711         0.806035
 H         4.064812         2.009476        -0.050111
 H         4.293505        -0.800081         0.285142
