19
Iteration:  3521
 C         4.301758         0.719421         2.650063
 C         3.183476         0.732945         1.551336
 C         1.806047         0.696158         1.912764
 C         1.270138         0.286492         0.561363
 C        -0.200956         0.124628         0.022146
 O         1.984896         1.521506        -0.226416
 C         3.328374         1.218921         0.108236
 C         3.380009        -0.258784         0.304871
 O         2.062947        -0.714808        -0.025756
 H         4.176846         1.564150         3.304323
 H         4.107826        -0.198939         3.206471
 H         5.355002         0.772722         2.358455
 H         1.518305        -0.146833         2.513720
 H         1.399237         1.642084         2.251488
 H        -0.211782         0.404750        -1.053910
 H        -0.578266        -0.994816         0.186939
 H        -0.882120         0.790466         0.577318
 H         4.153255         1.837562        -0.319152
 H         4.290065        -0.840996         0.244218
