19
Iteration:  2309
 C         4.298329         0.907152         2.528588
 C         3.260393         0.523457         1.521053
 C         1.745834         0.495441         1.938200
 C         1.264608         0.436291         0.447371
 C        -0.188274         0.282968         0.029128
 O         1.923201         1.533136        -0.110046
 C         3.348703         1.221090         0.275404
 C         3.376134        -0.331717         0.306502
 O         2.101920        -0.807812        -0.088744
 H         4.282952         1.971775         2.697617
 H         4.107436         0.442402         3.535687
 H         5.323558         0.654597         2.280686
 H         1.551071        -0.446112         2.529201
 H         1.510410         1.484770         2.424032
 H        -0.780269         0.391170         0.973610
 H        -0.357355         1.157592        -0.690424
 H        -0.535289        -0.585463        -0.545812
 H         4.096253         1.984211        -0.120026
 H         4.050817        -1.110657         0.106948
