19
Iteration:  2373charge 0 multiplicity 1
 C         4.272014         0.721834         2.617466
 C         3.266800         0.591811         1.539626
 C         1.705577         0.681166         1.905662
 C         1.295837         0.414820         0.450741
 C        -0.158988         0.159573         0.073873
 O         1.939708         1.533548        -0.249664
 C         3.333817         1.249461         0.147087
 C         3.375266        -0.293729         0.308124
 O         2.074147        -0.766093         0.049545
 H         4.066735         1.387675         3.433042
 H         4.416765        -0.338959         3.038794
 H         5.245253         0.958636         2.179454
 H         1.447075        -0.082382         2.679672
 H         1.471555         1.746040         2.156966
 H        -0.600645        -0.496473         0.818005
 H        -0.621104         1.182720         0.158903
 H        -0.283115        -0.063869        -0.966988
 H         4.220613         1.833050        -0.225790
 H         4.248840        -0.734779        -0.015748
