19
Iteration:  4810
 C         4.366403         0.762489         2.563462
 C         3.157257         0.510294         1.642249
 C         1.725531         0.565411         1.832471
 C         1.263604         0.396904         0.387929
 C        -0.137931         0.059724         0.151056
 O         2.041573         1.659325        -0.235170
 C         3.268245         1.272426         0.281722
 C         3.325823        -0.214892         0.289373
 O         2.042674        -0.696127        -0.101936
 H         4.292279         1.661828         3.145888
 H         4.411691        -0.049155         3.272221
 H         5.281430         0.764115         2.019450
 H         1.503633        -0.220538         2.615467
 H         1.449249         1.504616         2.410440
 H        -0.187551        -0.517990        -0.811016
 H        -0.160120        -0.708480         0.844164
 H        -0.940941         0.762700         0.407785
 H         4.058952         1.933466         0.325566
 H         4.232472        -0.789550        -0.058534
