19
Iteration:  1146
 C         4.507940         0.204369         2.556198
 C         3.269394         0.393864         1.551693
 C         1.862606        -0.036945         1.820726
 C         1.235046         0.401851         0.360249
 C        -0.147670        -0.037263         0.019570
 O         1.654865         1.820677         0.396655
 C         3.144805         1.620523         0.704279
 C         3.383030         0.210751         0.005530
 O         2.182978        -0.230491        -0.546747
 H         4.250825         0.418653         3.578068
 H         4.740977        -0.928005         2.413648
 H         5.528945         0.735722         2.290984
 H         1.840195        -1.095651         1.887693
 H         1.231063         0.364048         2.608530
 H        -0.417163         0.221790        -1.015239
 H        -0.083138        -1.111971         0.121422
 H        -0.779895         0.418004         0.770629
 H         3.738314         2.550734         0.494273
 H         4.391649        -0.092184        -0.397811
