19
Iteration:  3389charge 0 multiplicity 1
 C         4.300426         0.851292         2.702163
 C         3.295754         0.678889         1.532480
 C         1.847148         0.519174         1.942463
 C         1.326385         0.336919         0.459012
 C        -0.031193         0.341206        -0.046672
 O         1.867572         1.482565        -0.119282
 C         3.190939         1.240495         0.008182
 C         3.330541        -0.214892         0.339734
 O         2.013909        -0.877305        -0.018068
 H         4.382960         1.784454         3.168122
 H         3.931944         0.276703         3.556915
 H         5.267098         0.373758         2.544994
 H         1.851547        -0.412395         2.492637
 H         1.388731         1.246829         2.577794
 H        -0.035113         0.124597        -1.165357
 H        -0.652026        -0.412282         0.564097
 H        -0.504692         1.339440         0.086588
 H         3.926584         1.823316        -0.427010
 H         4.134275        -0.896809         0.114953
