19
Iteration:  1689
 C         4.374919         0.559425         2.523519
 C         3.282530         0.502278         1.563143
 C         1.734785         0.111403         1.868334
 C         1.348021         0.363562         0.458962
 C        -0.177613         0.237356         0.070057
 O         1.869655         1.661404         0.127052
 C         3.143111         1.493121         0.475984
 C         3.385833        -0.095609         0.129519
 O         2.163180        -0.539348        -0.352402
 H         3.904347         1.066837         3.423208
 H         4.617587        -0.379437         2.994393
 H         5.172703         1.130565         2.094933
 H         1.551372        -0.941716         2.158734
 H         1.253429         0.846873         2.531315
 H        -0.779866         0.967166         0.586318
 H        -0.149371         0.252833        -1.003565
 H        -0.380925        -0.835441         0.359154
 H         3.811482         2.392337         0.252525
 H         4.294887        -0.525919        -0.299550
