19
Iteration:  2486charge 0 multiplicity 1
 C         4.313669         0.905823         2.620660
 C         3.268573         0.459596         1.557063
 C         1.752576         0.538216         1.934290
 C         1.291684         0.493033         0.475855
 C        -0.093627         0.247227         0.029391
 O         1.984010         1.546256        -0.279657
 C         3.269110         1.181969         0.267338
 C         3.349154        -0.374121         0.235327
 O         2.018603        -0.743866         0.056883
 H         4.125138         1.983406         2.491206
 H         4.144960         0.648531         3.658067
 H         5.350426         0.737293         2.296961
 H         1.283705        -0.327724         2.378332
 H         1.323970         1.420942         2.374016
 H        -0.359881        -0.801727         0.108377
 H        -0.856678         0.676465         0.641349
 H        -0.241500         0.642430        -0.994918
 H         4.153316         1.766625        -0.115786
 H         4.142283        -1.036957        -0.143337
