19
Iteration:  2523charge 0 multiplicity 1
 C         4.356479         0.732958         2.630378
 C         3.258204         0.690928         1.567834
 C         1.681476         0.609155         1.851526
 C         1.254960         0.257198         0.485284
 C        -0.239175         0.253621         0.084785
 O         2.010178         1.484743        -0.298039
 C         3.301844         1.257776         0.201617
 C         3.369230        -0.293463         0.304646
 O         2.082578        -0.713659         0.008021
 H         4.253839         1.727384         3.105710
 H         4.225295         0.014190         3.408616
 H         5.413757         0.686504         2.380581
 H         1.656133        -0.137404         2.646657
 H         1.325268         1.547771         2.294101
 H        -0.807338        -0.589232         0.489601
 H        -0.479407         1.329569         0.303044
 H        -0.153265         0.084390        -0.967279
 H         3.973214         1.862102        -0.326059
 H         4.230711        -0.991496         0.353435
