19
Iteration:  4295
 C         4.441384         0.640715         2.660750
 C         3.196307         0.626634         1.675061
 C         1.655628         0.585764         1.909841
 C         1.313055         0.344701         0.349082
 C        -0.198301         0.121407         0.150114
 O         1.891051         1.546482        -0.324848
 C         3.259865         1.297978         0.109591
 C         3.401451        -0.131655         0.356334
 O         2.154390        -0.713716        -0.028011
 H         4.546861         1.682905         3.099617
 H         4.312737        -0.106400         3.495341
 H         5.360813         0.313288         2.101766
 H         1.216499        -0.339078         2.277896
 H         1.257176         1.439374         2.375663
 H        -0.470205         0.400973        -0.867477
 H        -0.636782        -0.856266         0.504694
 H        -0.530908         1.015696         0.662042
 H         3.982537         2.036605        -0.052141
 H         4.321330        -0.762757         0.079176
