19
Iteration:   735charge 0 multiplicity 1
 C         4.485556         0.219591         2.522122
 C         3.322176         0.188899         1.419906
 C         1.867490        -0.440314         1.541748
 C         1.271712         0.350504         0.382845
 C        -0.197351         0.080272         0.036902
 O         1.635864         1.747039         0.739595
 C         3.021769         1.558713         0.839432
 C         3.481953         0.502164        -0.078082
 O         2.243566         0.033033        -0.611265
 H         4.115182         0.720299         3.539131
 H         4.768905        -0.828726         2.823360
 H         5.309731         0.772000         2.104527
 H         1.696430        -1.508727         1.605582
 H         1.434981         0.029259         2.492101
 H        -0.633279         0.851626        -0.625514
 H         0.042596        -0.865340        -0.518399
 H        -0.735486        -0.239542         0.932611
 H         3.511830         2.535534         0.910989
 H         4.292750         0.543543        -0.720887
