19
Iteration:  1041
 C         4.419554         0.331083         2.531802
 C         3.310016         0.259685         1.500174
 C         1.919103        -0.231368         1.732552
 C         1.256168         0.383578         0.401282
 C        -0.141956         0.094447         0.044348
 O         1.623283         1.768055         0.529597
 C         3.087612         1.528524         0.786075
 C         3.486325         0.287466        -0.104017
 O         2.208550        -0.131234        -0.614924
 H         3.957258         0.890373         3.489572
 H         4.532533        -0.637102         3.000759
 H         5.312733         0.807009         2.193706
 H         1.618689        -1.332248         1.790743
 H         1.605201         0.243536         2.711439
 H        -0.580057        -0.448299         0.931417
 H        -0.781522         0.956357        -0.209415
 H        -0.229724        -0.697989        -0.759376
 H         3.795141         2.381941         0.788613
 H         4.333708        -0.186586        -0.711546
