19
Iteration:  3100charge 0 multiplicity 1
 C         4.310745         0.864341         2.636799
 C         3.296788         0.541759         1.582310
 C         1.802650         0.485050         1.985580
 C         1.307023         0.387904         0.454204
 C        -0.162869         0.239129         0.036881
 O         1.997377         1.466699        -0.251115
 C         3.278272         1.216505         0.247730
 C         3.282161        -0.247484         0.290850
 O         2.027048        -0.687576        -0.079817
 H         3.915275         1.712708         3.268747
 H         4.507792        -0.018173         3.217881
 H         5.263066         1.222669         2.262335
 H         1.483555        -0.478908         2.520018
 H         1.542940         1.445413         2.553169
 H        -0.936974        -0.322196         0.673709
 H        -0.765703         1.236816        -0.078166
 H        -0.238593        -0.224561        -0.961966
 H         4.225015         1.750616        -0.186898
 H         4.156510        -0.668321        -0.221270
