19
Iteration:  1280charge 0 multiplicity 1
 C         4.472954         0.188685         2.533820
 C         3.205627         0.471825         1.587392
 C         1.883984         0.011462         1.894825
 C         1.328437         0.341096         0.415441
 C        -0.148531         0.056574         0.037769
 O         1.625456         1.745061         0.208805
 C         3.089806         1.566872         0.650325
 C         3.413529         0.194604         0.046641
 O         2.233199        -0.283002        -0.507155
 H         4.629059         0.734041         3.523434
 H         4.676114        -0.922329         2.702544
 H         5.405433         0.648310         2.095861
 H         1.846023        -1.077395         2.085386
 H         1.324389         0.594064         2.619612
 H        -0.567925        -0.870751         0.440508
 H        -0.706479         0.908033         0.465794
 H        -0.360838         0.259048        -1.056374
 H         3.619287         2.502783         0.698222
 H         4.357741        -0.142272        -0.232652
