19
Iteration:  3500charge 0 multiplicity 1
 C         4.261517         0.627846         2.726531
 C         3.306055         0.687055         1.464040
 C         1.830048         0.642488         1.907922
 C         1.326931         0.390490         0.460874
 C        -0.042248         0.241713        -0.044340
 O         1.820513         1.482413        -0.216530
 C         3.175613         1.321850         0.075046
 C         3.383035        -0.247462         0.276963
 O         2.079904        -0.821041         0.201756
 H         3.927217         1.486439         3.279033
 H         4.244276        -0.343165         3.272193
 H         5.276620         0.939373         2.437631
 H         1.609859         0.006349         2.745119
 H         1.567293         1.671957         2.158260
 H        -0.007052         0.345566        -1.158476
 H        -0.370461        -0.910773         0.149026
 H        -0.700035         1.066649         0.307479
 H         3.899243         1.924432        -0.516352
 H         4.170783        -0.768156        -0.267864
