19
Iteration:   235charge 0 multiplicity 1
 C         4.562648         0.019878         2.258614
 C         3.284364         0.171622         1.432200
 C         2.031416        -0.665389         1.305224
 C         1.339564         0.272283         0.339146
 C        -0.055216         0.029419         0.069896
 O         1.434767         1.653329         0.914005
 C         2.801354         1.626145         1.202031
 C         3.411842         0.747283         0.110022
 O         2.292884         0.417213        -0.770072
 H         4.335334         0.154515         3.259645
 H         5.030184        -0.965624         2.022170
 H         5.382871         0.667090         2.008116
 H         2.212464        -1.639143         0.841671
 H         1.361036        -0.897778         2.219421
 H        -0.273498        -1.022811        -0.148657
 H        -0.588551         0.306275         0.968509
 H        -0.449655         0.682092        -0.694726
 H         3.287260         2.536498         1.537054
 H         4.453720         0.659437        -0.340112
