19
Iteration:  3647charge 0 multiplicity 1
 C         4.369131         0.696897         2.610792
 C         3.216793         0.693006         1.614859
 C         1.633491         0.589529         1.831329
 C         1.284253         0.328911         0.363558
 C        -0.132552         0.165818         0.149870
 O         1.965204         1.572941        -0.247287
 C         3.257690         1.216256         0.241066
 C         3.335636        -0.224450         0.436028
 O         2.153799        -0.737863        -0.120844
 H         4.398081         1.486492         3.422804
 H         4.613131        -0.292272         3.033410
 H         5.273982         0.994037         2.029774
 H         1.225942        -0.123711         2.593758
 H         1.321425         1.598843         2.085784
 H        -0.471567        -0.304129        -0.808214
 H        -0.530914        -0.497750         0.871291
 H        -0.577891         1.155389         0.213460
 H         3.997536         1.849324        -0.258644
 H         4.193235        -0.845316         0.297929
