19
Iteration:  4893
 C         4.286481         0.824292         2.558246
 C         3.175113         0.616044         1.604123
 C         1.736753         0.406639         1.936215
 C         1.288962         0.304349         0.488594
 C        -0.165175         0.290767         0.108500
 O         1.916239         1.572987        -0.230778
 C         3.266479         1.296396         0.171352
 C         3.429328        -0.272020         0.318344
 O         2.156193        -0.784538        -0.084457
 H         4.258692         1.858793         3.003580
 H         4.319803         0.096552         3.412380
 H         5.275148         0.676477         2.050686
 H         1.538085        -0.463576         2.482454
 H         1.476920         1.317119         2.387404
 H        -0.454432         0.439680        -0.934379
 H        -0.684156        -0.535883         0.640064
 H        -0.590266         1.233805         0.509589
 H         3.994665         1.923751        -0.258355
 H         4.410211        -0.791611         0.088612
