19
Iteration:   379
 C         4.437451        -0.010449         2.367961
 C         3.346892         0.257327         1.359512
 C         2.097629        -0.546104         1.430414
 C         1.327759         0.319867         0.397747
 C        -0.008058         0.126475        -0.009376
 O         1.437818         1.637487         0.979331
 C         2.871237         1.636668         1.031431
 C         3.357726         0.732870        -0.020608
 O         2.254052         0.155918        -0.726425
 H         4.190994         0.355058         3.335815
 H         4.710225        -1.076828         2.347159
 H         5.465958         0.397753         2.109579
 H         2.283791        -1.650609         1.299572
 H         1.580444        -0.485053         2.449817
 H        -0.697463         0.228848         0.841819
 H        -0.315685         0.806040        -0.826763
 H        -0.144695        -0.919317        -0.343029
 H         3.388072         2.535628         1.258020
 H         4.206116         0.929620        -0.621460
