19
Iteration:  1002
 C         4.392038         0.108159         2.519857
 C         3.297634         0.467096         1.501328
 C         1.943033        -0.255570         1.810420
 C         1.355292         0.334967         0.454124
 C        -0.071682         0.126641         0.026416
 O         1.557862         1.749334         0.473799
 C         2.982121         1.611564         0.714555
 C         3.441722         0.365083        -0.108259
 O         2.220581        -0.188747        -0.544438
 H         4.143147         0.482764         3.438643
 H         4.648812        -0.971026         2.409398
 H         5.373140         0.672334         2.393796
 H         2.179772        -1.310640         1.725164
 H         1.409976         0.028583         2.699827
 H        -0.584042         0.829877         0.642743
 H        -0.177491         0.427407        -1.015626
 H        -0.423556        -0.893349         0.182925
 H         3.362857         2.661963         0.733444
 H         4.439090         0.013650        -0.530053
