19
Iteration:   512
 C         4.477910        -0.028635         2.323519
 C         3.370059         0.286565         1.442367
 C         2.002154        -0.370146         1.616217
 C         1.327250         0.329724         0.404486
 C        -0.107033        -0.041128        -0.119482
 O         1.485373         1.763584         0.973372
 C         2.978939         1.674251         0.967902
 C         3.384515         0.613030        -0.073074
 O         2.242481         0.077490        -0.702333
 H         3.931092         0.187504         3.292483
 H         4.633138        -1.089629         2.295104
 H         5.422040         0.570643         2.322034
 H         2.054578        -1.463377         1.305486
 H         1.475350        -0.095417         2.510246
 H        -0.366640         0.657929        -0.929999
 H        -0.104754        -1.040239        -0.547929
 H        -0.717424         0.066358         0.745406
 H         3.493310         2.617011         1.183054
 H         4.238247         0.585150        -0.671026
