19
Iteration:   911
 C         4.459758         0.193490         2.578265
 C         3.377910         0.323935         1.489872
 C         1.999113        -0.324539         1.630841
 C         1.269269         0.346594         0.445783
 C        -0.155415         0.089351        -0.024100
 O         1.612624         1.748371         0.642854
 C         2.985563         1.664557         0.769325
 C         3.433366         0.432296        -0.077621
 O         2.151322        -0.189820        -0.629424
 H         4.147110         0.768796         3.481543
 H         4.630723        -0.867075         2.706509
 H         5.443865         0.517275         2.321073
 H         1.984509        -1.433172         1.805408
 H         1.546863         0.214473         2.472551
 H        -0.013962         0.082277        -1.129554
 H        -0.692512        -0.704745         0.476586
 H        -0.720601         1.001695         0.194116
 H         3.614740         2.516972         0.898651
 H         4.310685         0.261733        -0.617066
