19
Iteration:  4862
 C         4.404473         0.833257         2.680262
 C         3.291172         0.671818         1.587242
 C         1.836309         0.380798         1.926860
 C         1.232692         0.262640         0.504062
 C        -0.168257         0.408932        -0.033054
 O         1.842408         1.439042        -0.213117
 C         3.196054         1.400454         0.264612
 C         3.354423        -0.241488         0.173313
 O         2.115905        -0.862068        -0.035608
 H         4.462999         1.927749         2.958099
 H         4.034418         0.303328         3.592897
 H         5.444098         0.526884         2.422108
 H         1.710622        -0.597837         2.443077
 H         1.427718         1.118315         2.653615
 H        -0.286504         0.096444        -1.117505
 H        -0.856438        -0.099557         0.587142
 H        -0.257220         1.489509         0.166369
 H         3.774113         2.048299        -0.295678
 H         4.366029        -0.679550        -0.105783
