19
Iteration:  2859
 C         4.385570         0.684020         2.697708
 C         3.197590         0.691058         1.606545
 C         1.725228         0.600181         1.855765
 C         1.274101         0.406685         0.421977
 C        -0.205704         0.288831         0.064861
 O         1.931261         1.392166        -0.337511
 C         3.252515         1.269217         0.113587
 C         3.401761        -0.203138         0.387584
 O         2.160171        -0.786858         0.080017
 H         4.575280         1.748153         2.953546
 H         4.009829         0.104550         3.522194
 H         5.188518         0.174571         2.155416
 H         1.501710        -0.311425         2.445951
 H         1.477141         1.536385         2.391143
 H        -0.577011        -0.715998        -0.238706
 H        -0.773988         0.538990         0.941203
 H        -0.429598         1.042523        -0.759739
 H         3.835066         2.047210        -0.464290
 H         4.279800        -0.724729        -0.036206
