19
Iteration:  4369charge 0 multiplicity 1
 C         4.346680         0.872628         2.634607
 C         3.320279         0.485349         1.585965
 C         1.793949         0.567838         1.932089
 C         1.272681         0.500131         0.387646
 C        -0.188887         0.109135         0.032871
 O         1.924610         1.550043        -0.183393
 C         3.333988         1.181298         0.322042
 C         3.310453        -0.294187         0.206318
 O         2.023785        -0.698253        -0.063571
 H         3.794558         1.467544         3.378616
 H         4.818877         0.080512         3.222231
 H         5.085702         1.467824         2.067860
 H         1.658902        -0.418308         2.410446
 H         1.495467         1.464251         2.515253
 H        -0.452353         0.207476        -1.053186
 H        -0.145825        -0.908408         0.339130
 H        -0.851166         0.750810         0.616477
 H         3.917064         2.015959         0.107161
 H         4.152292        -0.850374        -0.306627
