19
Iteration:  4652charge 0 multiplicity 1
 C         4.332928         0.675294         2.655028
 C         3.317241         0.723952         1.496939
 C         1.823864         0.498007         1.949464
 C         1.299941         0.310027         0.549487
 C        -0.159674         0.264317        -0.046897
 O         1.758537         1.460571        -0.079674
 C         3.206245         1.381056         0.157404
 C         3.408991        -0.137397         0.210130
 O         2.163467        -0.784018        -0.032153
 H         4.579206         1.550265         3.259156
 H         3.829785         0.026358         3.370670
 H         5.267711         0.190043         2.335487
 H         1.836984        -0.501980         2.370081
 H         1.308169         1.260176         2.517603
 H        -0.355531        -0.022134        -1.031925
 H        -0.859640        -0.374138         0.546565
 H        -0.364856         1.336076         0.027113
 H         3.893599         1.823928        -0.474874
 H         4.275647        -0.721889        -0.218741
