19
Iteration:  3351
 C         4.351063         0.711335         2.588314
 C         3.164025         0.608108         1.642079
 C         1.714473         0.675217         1.919683
 C         1.304751         0.434276         0.345787
 C        -0.145654         0.183009         0.125154
 O         1.987098         1.432352        -0.329928
 C         3.294676         1.262037         0.250806
 C         3.358896        -0.240736         0.354605
 O         2.083455        -0.752086        -0.041289
 H         4.256812         1.724424         3.159850
 H         4.249653        -0.056409         3.412313
 H         5.278168         0.594585         1.990544
 H         1.188674        -0.163637         2.457792
 H         1.496290         1.754542         2.209892
 H        -0.361467         0.330577        -0.916536
 H        -0.300225        -0.857371         0.449583
 H        -0.813922         0.743810         0.798166
 H         3.939061         2.175627         0.007167
 H         4.352028        -0.761149         0.212684
