19
Iteration:  1816charge 0 multiplicity 1
 C         4.308482         0.537934         2.596796
 C         3.263071         0.540900         1.636020
 C         1.806499         0.169617         1.853341
 C         1.320463         0.336263         0.413511
 C        -0.173594         0.305326         0.082340
 O         1.774370         1.609256         0.053556
 C         3.201152         1.470996         0.241293
 C         3.415382        -0.001043         0.144920
 O         2.205337        -0.655042        -0.167936
 H         4.180208         1.224590         3.364402
 H         4.629205        -0.444247         2.987564
 H         5.188309         1.012951         2.206726
 H         1.744167        -0.860750         2.172938
 H         1.274431         0.773495         2.573479
 H        -0.452311        -0.557878        -0.561765
 H        -0.779772         0.457853         0.932474
 H        -0.384018         1.163077        -0.574368
 H         3.927730         2.289928        -0.108124
 H         4.216779        -0.666386        -0.211928
