19
Iteration:   406
 C         4.542157         0.045739         2.458066
 C         3.386694         0.230782         1.391227
 C         2.076109        -0.564841         1.535107
 C         1.245898         0.311282         0.454671
 C        -0.160267         0.085609        -0.153995
 O         1.513741         1.643867         0.958190
 C         2.968154         1.593109         0.943020
 C         3.403647         0.715192        -0.108494
 O         2.157322         0.250029        -0.665695
 H         4.183899         0.232120         3.536131
 H         4.868004        -1.014586         2.460506
 H         5.413313         0.644324         2.294669
 H         2.360210        -1.591459         1.271154
 H         1.654053        -0.752536         2.485996
 H        -0.721614        -0.652778         0.469089
 H        -0.707152         1.022466        -0.245036
 H        -0.099380        -0.353149        -1.148775
 H         3.425127         2.525010         1.367761
 H         4.243160         0.655607        -0.822772
