19
Iteration:  2743
 C         4.285233         0.752108         2.506848
 C         3.168234         0.651734         1.593226
 C         1.719861         0.609149         1.911774
 C         1.336636         0.305938         0.380563
 C        -0.161877         0.343519         0.075714
 O         1.960782         1.404104        -0.340796
 C         3.314071         1.263564         0.201105
 C         3.374451        -0.240572         0.430685
 O         2.091366        -0.786131         0.079806
 H         3.917619         1.450369         3.296935
 H         4.464346        -0.259578         2.995748
 H         5.226465         1.107952         2.044219
 H         1.485182        -0.219703         2.611535
 H         1.355458         1.560720         2.347736
 H        -0.489353        -0.725974         0.077602
 H        -0.640700         0.732197         0.963868
 H        -0.220275         0.933543        -0.892234
 H         4.174465         1.899480        -0.160658
 H         4.370995        -0.627151         0.254581
