19
Iteration:  4549
 C         4.375678         0.784351         2.692036
 C         3.303846         0.672405         1.528385
 C         1.857339         0.441454         1.942870
 C         1.244364         0.398543         0.518468
 C        -0.134768         0.344030         0.007322
 O         1.814509         1.459180        -0.195345
 C         3.166319         1.337531         0.206572
 C         3.385636        -0.258671         0.240602
 O         2.114088        -0.858963        -0.084712
 H         3.828262         1.332628         3.516289
 H         4.845673        -0.117880         3.166484
 H         5.222420         1.441796         2.373319
 H         1.868925        -0.445943         2.548735
 H         1.451222         1.200897         2.600598
 H        -0.090134         0.843324        -1.001240
 H        -0.702402        -0.546921        -0.012450
 H        -0.866537         0.962191         0.500306
 H         3.853156         1.958124        -0.317846
 H         4.266697        -0.902091         0.034761
