19
Iteration:  2614
 C         4.286176         0.845569         2.585232
 C         3.220264         0.549026         1.585650
 C         1.736955         0.487940         1.871711
 C         1.295455         0.405794         0.408314
 C        -0.118358         0.321120         0.041925
 O         1.901064         1.583495        -0.186433
 C         3.293663         1.127804         0.158470
 C         3.442632        -0.331044         0.352859
 O         2.086370        -0.749161         0.042645
 H         4.041450         1.813296         2.904790
 H         4.303818         0.077950         3.369288
 H         5.168825         0.942760         1.993223
 H         1.521345        -0.337789         2.609270
 H         1.412397         1.487087         2.268930
 H        -0.663322         0.145537         0.973040
 H        -0.337341         1.218482        -0.456921
 H        -0.363608        -0.578888        -0.574207
 H         4.069255         1.927467        -0.103237
 H         4.086540        -0.951093        -0.164221
