19
Iteration:   662charge 0 multiplicity 1
 C         4.549273        -0.005359         2.339707
 C         3.261770         0.301454         1.531350
 C         1.970764        -0.388800         1.643733
 C         1.334085         0.378249         0.366278
 C        -0.174519         0.061034         0.087258
 O         1.508506         1.715280         0.544973
 C         2.903008         1.709585         0.999093
 C         3.452982         0.542918         0.085320
 O         2.353270         0.003871        -0.678078
 H         4.348326         0.077597         3.334706
 H         4.709668        -1.121195         2.142426
 H         5.493388         0.518124         2.037441
 H         1.725134        -1.455332         1.590175
 H         1.284713         0.006180         2.372747
 H        -0.112342        -0.791911        -0.638660
 H        -0.764740        -0.057442         1.021923
 H        -0.705683         0.908572        -0.393941
 H         3.235112         2.745412         1.074106
 H         4.345280         0.487605        -0.469419
