19
Iteration:  4222charge 0 multiplicity 1
 C         4.353575         0.915282         2.618257
 C         3.237596         0.675379         1.559709
 C         1.790479         0.388590         1.894934
 C         1.279044         0.244139         0.451147
 C        -0.194554         0.402547         0.055092
 O         1.934360         1.471818        -0.206694
 C         3.192069         1.303731         0.269341
 C         3.414127        -0.256650         0.333967
 O         2.101234        -0.819054        -0.121879
 H         4.181693         1.801851         3.198138
 H         4.352288        -0.022224         3.155486
 H         5.345856         0.939198         2.236044
 H         1.757921        -0.657639         2.352590
 H         1.406724         1.099399         2.687723
 H        -0.328872         0.118525        -0.947774
 H        -0.851923        -0.150968         0.830014
 H        -0.447457         1.460134         0.052792
 H         3.905140         1.964777        -0.098515
 H         4.159865        -1.105440         0.162148
