19
Iteration:  1568
 C         4.358923         0.453859         2.498139
 C         3.212681         0.372410         1.596053
 C         1.748617         0.142865         1.888444
 C         1.379722         0.357158         0.383956
 C        -0.121434         0.030486         0.084326
 O         1.803242         1.759069         0.221774
 C         3.171439         1.467069         0.421261
 C         3.401627         0.030820         0.122570
 O         2.163171        -0.357951        -0.423825
 H         4.302971         1.391598         3.212210
 H         4.467123        -0.335920         3.241863
 H         5.295616         0.527383         2.005566
 H         1.408980        -0.848732         2.205583
 H         1.365066         0.927424         2.575613
 H        -0.125989        -0.653483        -0.776022
 H        -0.562694        -0.366106         0.932622
 H        -0.545017         1.005166        -0.066540
 H         3.778295         2.336123         0.428266
 H         4.250791        -0.663183         0.097762
