19
Iteration:   535
 C         4.501439         0.066389         2.387361
 C         3.300373         0.172997         1.504827
 C         1.946085        -0.500055         1.579108
 C         1.324608         0.320716         0.414692
 C        -0.119324         0.035680         0.042097
 O         1.570824         1.670190         0.701813
 C         2.919742         1.637825         0.973836
 C         3.455130         0.585009        -0.004467
 O         2.229740         0.251251        -0.689008
 H         4.265543         0.448695         3.443821
 H         4.839153        -0.916143         2.415924
 H         5.289309         0.706158         1.971882
 H         1.887011        -1.513984         1.113999
 H         1.427266        -0.350806         2.502632
 H        -0.659141         0.948014        -0.196692
 H         0.009197        -0.466271        -0.898271
 H        -0.526557        -0.591755         0.796483
 H         3.413887         2.579831         1.172097
 H         4.219118         0.605541        -0.716062
