19
Iteration:  4816charge 0 multiplicity 1
 C         4.323899         0.774872         2.538150
 C         3.195050         0.498274         1.633777
 C         1.700861         0.549799         1.871949
 C         1.300865         0.452675         0.379039
 C        -0.130302         0.056645         0.166018
 O         2.013570         1.667030        -0.205020
 C         3.297436         1.318665         0.291507
 C         3.357298        -0.270974         0.272451
 O         2.028377        -0.725817        -0.106254
 H         4.291842         1.806299         3.021955
 H         4.379707         0.017514         3.378475
 H         5.318457         0.726321         1.981498
 H         1.419580        -0.254125         2.543967
 H         1.406725         1.454853         2.368180
 H        -0.191724        -0.427228        -0.788973
 H        -0.303410        -0.860119         0.890535
 H        -0.959757         0.767989         0.134312
 H         4.214135         2.017752         0.232591
 H         4.129292        -0.888127        -0.056309
