19
Iteration:  2570charge 0 multiplicity 1
 C         4.310866         0.721962         2.622400
 C         3.251745         0.749791         1.587494
 C         1.758305         0.625621         1.922077
 C         1.323538         0.370281         0.428536
 C        -0.254894         0.185572         0.053086
 O         1.997095         1.522108        -0.277663
 C         3.307148         1.217008         0.122822
 C         3.378713        -0.273708         0.352963
 O         2.056837        -0.747097         0.042821
 H         4.131676         1.229600         3.543212
 H         4.358575        -0.413449         2.753577
 H         5.277157         1.018296         2.242516
 H         1.341144        -0.237318         2.507704
 H         1.280537         1.569408         2.285529
 H        -0.837212        -0.131694         0.930835
 H        -0.440457         1.143340        -0.314698
 H        -0.410099        -0.626927        -0.715551
 H         4.215591         1.791496        -0.160834
 H         4.236467        -0.924151         0.177535
