19
Iteration:  1377
 C         4.327922         0.444037         2.491255
 C         3.230341         0.403274         1.551263
 C         1.825846        -0.072016         1.785706
 C         1.302864         0.373916         0.417127
 C        -0.097675         0.167910         0.038764
 O         1.721930         1.759603         0.345007
 C         3.160280         1.524404         0.607843
 C         3.447337         0.093017         0.128912
 O         2.192023        -0.432782        -0.493114
 H         4.201383         1.259143         3.205700
 H         4.722301        -0.528677         2.906561
 H         5.309125         0.711191         1.940103
 H         1.898301        -1.155766         1.923626
 H         1.244483         0.466773         2.516901
 H        -0.449892         0.938759        -0.666695
 H        -0.286049        -0.907761        -0.146949
 H        -0.663741         0.465551         1.027069
 H         3.632473         2.529345         0.456614
 H         4.319212        -0.230745        -0.473533
