19
Iteration:   827
 C         4.453916         0.037596         2.426593
 C         3.251880         0.322469         1.502183
 C         1.880888        -0.234068         1.797042
 C         1.343895         0.335340         0.448080
 C        -0.094053        -0.069592        -0.048536
 O         1.624296         1.727116         0.626790
 C         3.042338         1.689627         0.771082
 C         3.389917         0.487730        -0.079018
 O         2.210302         0.020913        -0.593643
 H         4.165777         0.199429         3.424305
 H         4.937149        -1.026844         2.450603
 H         5.308554         0.818038         2.197606
 H         1.997349        -1.338879         1.931779
 H         1.493457         0.178639         2.699685
 H        -0.668307        -0.733802         0.621190
 H        -0.702689         0.858123        -0.169974
 H         0.022517        -0.345838        -1.128755
 H         3.553832         2.632781         0.723536
 H         4.223224        -0.025215        -0.513418
