19
Iteration:  2014charge 0 multiplicity 1
 C         4.315130         0.711228         2.528748
 C         3.297098         0.566091         1.554882
 C         1.768433         0.336201         1.954668
 C         1.243645         0.287061         0.468300
 C        -0.202669         0.347021         0.056013
 O         1.883961         1.535470        -0.090054
 C         3.246866         1.360272         0.291406
 C         3.380783        -0.181305         0.271146
 O         2.174182        -0.691298        -0.194957
 H         3.934329         1.353511         3.416885
 H         4.521035        -0.251132         3.183844
 H         5.297424         1.082049         2.176312
 H         1.648000        -0.627683         2.482406
 H         1.303103         1.120346         2.579934
 H        -0.874128         0.088479         0.888184
 H        -0.434089         1.439921        -0.258241
 H        -0.352512        -0.330747        -0.837717
 H         4.072400         2.091120         0.088186
 H         4.282386        -0.619827        -0.100062
