19
Iteration:  3329
 C         4.382465         0.792825         2.597964
 C         3.139756         0.661829         1.586621
 C         1.627392         0.667699         1.797830
 C         1.307617         0.352581         0.368120
 C        -0.158094         0.125260         0.166707
 O         2.019967         1.607941        -0.255268
 C         3.328341         1.205609         0.172761
 C         3.309008        -0.368030         0.502877
 O         2.101085        -0.686172        -0.077205
 H         4.421733         1.492285         3.532380
 H         4.411547        -0.268132         2.956394
 H         5.269358         0.881087         1.948750
 H         1.476254        -0.215831         2.486834
 H         1.203734         1.668677         2.137853
 H        -0.457509         0.333403        -0.844872
 H        -0.256067        -0.981017         0.295173
 H        -0.840504         0.564015         0.900702
 H         4.325321         1.559087        -0.173752
 H         4.189654        -1.052790         0.326751
