19
Iteration:  1686charge 0 multiplicity 1
 C         4.381971         0.573235         2.551848
 C         3.252739         0.488404         1.571923
 C         1.729788         0.075283         1.884844
 C         1.338919         0.396019         0.439235
 C        -0.140453         0.205453         0.084583
 O         1.867769         1.673044         0.110419
 C         3.171577         1.486837         0.465377
 C         3.386256        -0.081911         0.121257
 O         2.137071        -0.528166        -0.352944
 H         3.909375         1.110443         3.441325
 H         4.733169        -0.422967         2.910580
 H         5.133052         1.104205         2.045962
 H         1.510302        -0.916867         2.227459
 H         1.244276         0.813135         2.509510
 H        -0.731556         1.088618         0.500832
 H        -0.151955         0.196591        -0.988221
 H        -0.316582        -0.824872         0.426696
 H         3.806335         2.321502         0.289158
 H         4.255523        -0.521740        -0.345300
