19
Iteration:   608charge 0 multiplicity 1
 C         4.520453        -0.031553         2.475057
 C         3.408250         0.216090         1.450358
 C         2.044211        -0.315740         1.638045
 C         1.258215         0.363677         0.497741
 C        -0.087293        -0.025998        -0.131198
 O         1.505166         1.768614         0.748745
 C         2.921881         1.681678         0.892311
 C         3.427889         0.552651        -0.108370
 O         2.148700         0.060392        -0.600287
 H         4.122764         0.155773         3.443019
 H         4.979866        -1.068418         2.287001
 H         5.404660         0.684407         2.316525
 H         2.015752        -1.414177         1.411526
 H         1.515021        -0.013349         2.539552
 H        -0.643371        -0.822386         0.453579
 H        -0.624591         0.959880        -0.053026
 H         0.125913        -0.372788        -1.147255
 H         3.374299         2.638901         1.093181
 H         4.250338         0.712009        -0.704835
