19
Iteration:  4143
 C         4.220764         0.691330         2.638478
 C         3.311282         0.671430         1.487136
 C         1.793043         0.623287         1.959764
 C         1.319703         0.460677         0.568121
 C        -0.058962         0.108092         0.005067
 O         1.868678         1.610410        -0.140230
 C         3.236120         1.270094         0.080268
 C         3.377965        -0.309429         0.241487
 O         2.059168        -0.772016         0.012443
 H         3.995050         1.543836         3.218296
 H         4.035194        -0.197051         3.242908
 H         5.220698         0.779540         2.303705
 H         1.601779        -0.063717         2.793964
 H         1.601296         1.598610         2.375826
 H         0.150162         0.275245        -1.074690
 H        -0.063836        -0.949357         0.120365
 H        -0.955557         0.481030         0.484166
 H         3.881263         1.832075        -0.670819
 H         4.205262        -0.921962         0.056315
