19
Iteration:  2172
 C         4.322000         0.880821         2.624661
 C         3.289286         0.483724         1.589951
 C         1.813262         0.423483         1.901573
 C         1.293897         0.450652         0.398710
 C        -0.159896         0.204440         0.073545
 O         1.955885         1.541994        -0.152971
 C         3.318335         1.271184         0.344309
 C         3.314638        -0.276696         0.223535
 O         2.003136        -0.704793        -0.107690
 H         4.040974         1.852344         3.167123
 H         4.412649         0.058501         3.270288
 H         5.284788         0.965371         2.033737
 H         1.397854        -0.407418         2.460915
 H         1.444268         1.312948         2.401619
 H        -0.372806         1.063278        -0.560708
 H        -0.251427        -0.710461        -0.424064
 H        -0.947998         0.348851         0.848965
 H         4.193635         1.796552        -0.234913
 H         4.074539        -0.954811        -0.100574
