19
Iteration:   679
 C         4.488268        -0.014343         2.433469
 C         3.332402         0.340097         1.514942
 C         1.935285        -0.339269         1.616442
 C         1.236701         0.277199         0.424750
 C        -0.249963         0.107931         0.015003
 O         1.525208         1.705857         0.668017
 C         2.958058         1.669040         0.860770
 C         3.463733         0.610183        -0.051492
 O         2.381339        -0.058808        -0.652516
 H         4.301122         0.446710         3.535038
 H         4.781150        -1.047410         2.362974
 H         5.367771         0.478403         2.064852
 H         2.163621        -1.383866         1.381788
 H         1.619298        -0.302750         2.704520
 H        -0.318664        -0.370173        -0.958408
 H        -0.681351        -0.437277         0.865288
 H        -0.659414         1.131098        -0.029490
 H         3.438447         2.569046         1.200753
 H         4.419618         0.761568        -0.568477
