19
Iteration:  2784charge 0 multiplicity 1
 C         4.342820         0.926676         2.651016
 C         3.346679         0.578019         1.624050
 C         1.856120         0.571707         1.865279
 C         1.251316         0.366769         0.397098
 C        -0.251199         0.291431        -0.039630
 O         2.023177         1.500989        -0.219508
 C         3.287998         1.187243         0.214106
 C         3.350586        -0.297262         0.384844
 O         1.972633        -0.829582         0.040258
 H         3.760512         1.794440         3.082513
 H         4.529891         0.133493         3.354740
 H         5.301815         1.133445         2.076484
 H         1.697598        -0.370515         2.358934
 H         1.397170         1.438514         2.283565
 H        -0.370284        -0.748874        -0.405820
 H        -0.933731         0.472433         0.714950
 H        -0.605169         1.037837        -0.804713
 H         4.138428         1.821700        -0.221789
 H         3.862094        -0.983622        -0.159462
