19
Iteration:   812
 C         4.444302         0.002108         2.363071
 C         3.364728         0.396473         1.470607
 C         1.964227        -0.185055         1.787123
 C         1.273373         0.304368         0.490444
 C        -0.054753         0.004049        -0.113603
 O         1.564330         1.772587         0.626421
 C         2.967235         1.657608         0.800301
 C         3.426402         0.440054         0.022904
 O         2.200746        -0.089066        -0.583545
 H         4.149436         0.001155         3.473845
 H         4.635172        -1.053712         2.088103
 H         5.299679         0.660548         2.296922
 H         1.829197        -1.272310         1.855823
 H         1.432349         0.356041         2.614485
 H        -0.719167        -0.479284         0.642000
 H        -0.470695         0.957943        -0.446581
 H         0.147045        -0.821775        -0.796983
 H         3.489629         2.598835         1.059883
 H         4.250753         0.691165        -0.746159
