19
Iteration:  3848
 C         4.325866         0.654925         2.656684
 C         3.273432         0.673931         1.559832
 C         1.806430         0.641135         1.883365
 C         1.273586         0.337238         0.455425
 C        -0.220688         0.091752         0.023639
 O         1.920689         1.575275        -0.227523
 C         3.223293         1.292772         0.158661
 C         3.411766        -0.247049         0.356895
 O         2.120277        -0.703543        -0.028758
 H         3.960526         1.333101         3.434368
 H         4.331535        -0.359705         3.115229
 H         5.327750         1.068263         2.435947
 H         1.540471        -0.222222         2.518573
 H         1.550438         1.568990         2.441361
 H        -0.207248        -0.275978        -0.926425
 H        -0.621576        -0.590541         0.718927
 H        -0.843708         0.957714        -0.007031
 H         3.875894         2.073202        -0.292980
 H         4.227497        -0.860354         0.091125
