19
Iteration:   526charge 0 multiplicity 1
 C         4.467466         0.040038         2.400198
 C         3.292481         0.258480         1.436836
 C         2.016732        -0.463261         1.536574
 C         1.280833         0.337614         0.400368
 C        -0.078582         0.010668        -0.015242
 O         1.548326         1.728862         0.812377
 C         2.935803         1.645677         0.997355
 C         3.441568         0.539747        -0.042341
 O         2.199701         0.193234        -0.701862
 H         4.385589         0.272498         3.488796
 H         4.817489        -0.950079         2.395049
 H         5.238460         0.625629         1.993598
 H         2.110764        -1.545831         1.585245
 H         1.533827        -0.205907         2.482247
 H        -0.575182         0.878281        -0.455182
 H         0.015812        -0.753289        -0.786451
 H        -0.680137        -0.471005         0.773068
 H         3.453106         2.503168         1.412872
 H         4.362391         0.484809        -0.645364
