19
Iteration:  1234
 C         4.370155         0.378601         2.534686
 C         3.263471         0.317375         1.512492
 C         1.913662        -0.126135         1.816250
 C         1.321481         0.361957         0.523627
 C        -0.121880         0.143755         0.019117
 O         1.723583         1.786368         0.389779
 C         3.071346         1.589796         0.605789
 C         3.454639         0.166903        -0.003175
 O         2.132347        -0.323991        -0.524547
 H         4.249123         1.155724         3.268103
 H         4.386383        -0.706179         2.895549
 H         5.414221         0.639738         2.120282
 H         1.959159        -1.183065         1.922044
 H         1.516677         0.274482         2.723068
 H        -0.944078         0.047153         0.724280
 H        -0.396914         0.767377        -0.792400
 H        -0.149279        -0.824897        -0.494005
 H         3.582196         2.488447         0.898583
 H         4.325988        -0.043809        -0.643847
