19
Iteration:   432
 C         4.551258         0.048401         2.295834
 C         3.306338         0.184583         1.419266
 C         1.914959        -0.508104         1.523096
 C         1.307144         0.340797         0.408365
 C        -0.069730         0.035588        -0.007401
 O         1.514637         1.699837         0.855919
 C         2.871842         1.617100         1.106475
 C         3.449554         0.605387        -0.011052
 O         2.275347         0.220889        -0.744705
 H         4.300595         0.107561         3.340642
 H         5.065657        -0.999729         2.253875
 H         5.222798         0.921300         2.039766
 H         2.002415        -1.565130         1.294315
 H         1.394933        -0.523665         2.521639
 H        -0.352652        -1.014075         0.136402
 H        -0.650550         0.727779         0.638324
 H        -0.311196         0.370098        -1.037058
 H         3.242850         2.593693         1.354564
 H         4.378434         0.780953        -0.557969
