19
Iteration:  4669charge 0 multiplicity 1
 C         4.416373         0.729675         2.650053
 C         3.261123         0.647094         1.592448
 C         1.784091         0.378150         1.914640
 C         1.255907         0.288806         0.458842
 C        -0.132742         0.240942         0.067482
 O         1.870391         1.560635        -0.148415
 C         3.207081         1.308260         0.146614
 C         3.379971        -0.167849         0.268546
 O         2.093701        -0.710766        -0.084833
 H         4.593457         1.804045         2.898269
 H         4.191952         0.254107         3.641841
 H         5.394215         0.369467         2.272778
 H         1.527764        -0.477887         2.567523
 H         1.268528         1.237318         2.404641
 H        -0.095674        -0.073874        -1.092849
 H        -0.772473        -0.491217         0.525614
 H        -0.698030         1.190764         0.047912
 H         3.784393         2.197122        -0.201916
 H         4.236801        -0.736474         0.050520
