19
Iteration:  4760charge 0 multiplicity 1
 C         4.260520         0.640762         2.624423
 C         3.251281         0.709786         1.562826
 C         1.808979         0.479363         1.933710
 C         1.352902         0.322491         0.449683
 C        -0.144773         0.275059         0.019277
 O         1.840623         1.460248        -0.227649
 C         3.163989         1.371203         0.114663
 C         3.421326        -0.135810         0.199974
 O         2.172319        -0.777430         0.143593
 H         3.807959         1.199827         3.506185
 H         4.362215        -0.425225         2.999973
 H         5.287283         1.089159         2.413106
 H         1.701432        -0.370019         2.611482
 H         1.458865         1.341525         2.468675
 H        -0.032777         0.743768        -0.964441
 H        -0.837249        -0.668359         0.055253
 H        -0.585835         0.959086         0.774885
 H         3.904269         1.930912        -0.496229
 H         4.275511        -0.709021        -0.310183
