19
Iteration:  2476
 C         4.283816         0.949230         2.577676
 C         3.272868         0.435568         1.647278
 C         1.745715         0.500276         1.896284
 C         1.311381         0.394960         0.475048
 C        -0.205922         0.277104         0.047153
 O         2.010795         1.474782        -0.251282
 C         3.381137         1.225525         0.156941
 C         3.360737        -0.259413         0.307443
 O         1.973044        -0.751584         0.024504
 H         4.358474         2.043138         2.723365
 H         4.245853         0.586799         3.552491
 H         5.313854         0.660923         2.329342
 H         1.353339        -0.325834         2.456883
 H         1.484704         1.426662         2.377294
 H        -0.346979        -0.755640        -0.198978
 H        -0.931092         0.787387         0.668969
 H        -0.208379         0.714842        -0.965598
 H         4.187587         2.041211         0.071424
 H         3.923132        -1.065233        -0.113181
