19
Iteration:  1874
 C         4.346850         0.644044         2.557352
 C         3.288218         0.487872         1.547699
 C         1.742217         0.330190         1.892496
 C         1.304285         0.434973         0.396675
 C        -0.107547         0.102533         0.107215
 O         1.883670         1.726288         0.049668
 C         3.266056         1.339691         0.382551
 C         3.402659        -0.141763         0.179736
 O         2.061832        -0.615474        -0.259827
 H         3.860444         1.022018         3.535706
 H         4.601933        -0.299347         2.995813
 H         5.206750         1.125143         2.162241
 H         1.375205        -0.617102         2.319910
 H         1.331033         1.209189         2.403805
 H        -0.338699         0.152059        -0.978552
 H        -0.448251        -1.001522         0.288638
 H        -0.780915         0.896804         0.582051
 H         3.979514         2.093913         0.247271
 H         4.093774        -0.738491        -0.393184
