19
Iteration:  1291charge 0 multiplicity 1
 C         4.413485         0.218186         2.482055
 C         3.307184         0.462299         1.591516
 C         1.873271        -0.024472         1.866710
 C         1.295583         0.338948         0.391037
 C        -0.145034         0.135286         0.060107
 O         1.678153         1.717725         0.238332
 C         3.025495         1.659756         0.605214
 C         3.438265         0.239289         0.056798
 O         2.256548        -0.371623        -0.410169
 H         4.032012         0.527678         3.499788
 H         4.369718        -0.919543         2.524781
 H         5.404512         0.459902         2.046509
 H         1.918156        -1.094774         2.149432
 H         1.316370         0.508001         2.640811
 H        -0.418230        -0.922653         0.026660
 H        -0.760936         0.662530         0.809428
 H        -0.293068         0.426766        -1.020300
 H         3.600779         2.581645         0.484845
 H         4.293883        -0.116847        -0.483945
