19
Iteration:  2731
 C         4.332374         0.745426         2.614620
 C         3.242508         0.694570         1.577606
 C         1.720783         0.611172         1.857918
 C         1.273435         0.438421         0.359479
 C        -0.183805         0.238410         0.075288
 O         1.989712         1.443844        -0.318528
 C         3.250149         1.259530         0.207767
 C         3.394922        -0.276243         0.383905
 O         2.112356        -0.802093         0.098315
 H         4.311289         1.501935         3.472067
 H         4.433372        -0.280590         3.052013
 H         5.326120         0.985589         2.163611
 H         1.378015        -0.220977         2.476515
 H         1.325404         1.570415         2.205606
 H        -0.642329        -0.777540         0.035976
 H        -0.678161         0.880226         0.750267
 H        -0.663077         0.661250        -0.876179
 H         4.061491         1.891939        -0.281639
 H         4.074060        -1.045838         0.171829
