19
Iteration:  3479charge 0 multiplicity 1
 C         4.336949         0.729950         2.695141
 C         3.339943         0.663704         1.553905
 C         1.780704         0.603569         1.890962
 C         1.247118         0.396515         0.438468
 C        -0.197192         0.239407        -0.001004
 O         1.890865         1.490086        -0.314453
 C         3.241463         1.269457         0.134526
 C         3.377855        -0.183748         0.340775
 O         2.114072        -0.828786         0.118655
 H         4.059993         1.374518         3.554260
 H         4.356568        -0.356245         3.000033
 H         5.376094         0.920993         2.343308
 H         1.590658        -0.277719         2.495293
 H         1.352687         1.423687         2.491132
 H        -0.149792         0.069507        -1.099697
 H        -0.749728        -0.710165         0.414517
 H        -0.677235         1.228080         0.105923
 H         3.995035         1.960570        -0.304692
 H         4.164110        -0.867276         0.066160
