19
Iteration:   106charge 0 multiplicity 1
 C         4.559033        -0.067128         2.209272
 C         3.309885         0.228482         1.424602
 C         2.098132        -0.656014         1.291464
 C         1.316288         0.266297         0.427808
 C        -0.088684         0.062422        -0.101747
 O         1.433884         1.549228         1.129970
 C         2.858178         1.646247         1.203228
 C         3.347982         0.851225         0.043987
 O         2.263576         0.409485        -0.748777
 H         4.398281        -0.367795         3.305374
 H         5.192907        -0.884519         1.768847
 H         5.179235         0.914584         2.214665
 H         2.345359        -1.551749         0.721252
 H         1.540882        -0.910313         2.274023
 H        -0.332479         0.887899        -0.830499
 H        -0.017553        -0.851222        -0.717899
 H        -0.871554        -0.044196         0.696417
 H         3.277081         2.533518         1.623197
 H         4.222241         0.976891        -0.544493
