19
Iteration:    28charge 0 multiplicity 1
 C         4.665991        -0.196657         2.123261
 C         3.331864         0.171647         1.486275
 C         2.164818        -0.690922         1.154374
 C         1.320771         0.353018         0.330449
 C        -0.162017        -0.072814         0.055453
 O         1.344438         1.606828         0.992773
 C         2.717006         1.591821         1.348271
 C         3.366492         1.027452         0.157371
 O         2.342385         0.537390        -0.741824
 H         4.590093        -0.152373         3.231531
 H         5.037606        -1.235352         1.752918
 H         5.532379         0.438707         1.803339
 H         2.344065        -1.649820         0.590162
 H         1.594616        -1.090279         2.050660
 H        -0.354781        -1.125573         0.350747
 H        -0.804495         0.642105         0.598840
 H        -0.305465        -0.050434        -1.045850
 H         3.058245         2.604265         1.679818
 H         4.361995         1.140693        -0.302808
