19
Iteration:   846
 C         4.482247         0.178967         2.479444
 C         3.298975         0.300274         1.553018
 C         1.900916        -0.283838         1.622462
 C         1.283047         0.366346         0.390209
 C        -0.133887         0.003196         0.053675
 O         1.609766         1.801729         0.614497
 C         3.023928         1.605090         0.789756
 C         3.461097         0.328584         0.009250
 O         2.216127        -0.024096        -0.664716
 H         4.220132         0.453446         3.503663
 H         4.798477        -0.914917         2.473340
 H         5.415965         0.663516         2.162604
 H         1.858729        -1.405083         1.558321
 H         1.297121         0.026594         2.482764
 H        -0.333331        -0.985093         0.534699
 H        -0.908073         0.665121         0.454467
 H        -0.353931         0.013624        -1.025036
 H         3.507379         2.539940         1.003092
 H         4.400054         0.529243        -0.546001
