19
Iteration:  1463charge 0 multiplicity 1
 C         4.440642         0.320967         2.565006
 C         3.279636         0.400714         1.654305
 C         1.798615         0.150192         1.819686
 C         1.266487         0.458904         0.413494
 C        -0.133331         0.016113         0.085394
 O         1.780947         1.762187         0.150369
 C         3.089405         1.479532         0.540376
 C         3.376611         0.102650         0.118218
 O         2.190458        -0.360790        -0.483907
 H         4.209137         0.870722         3.416076
 H         4.608522        -0.764508         2.793522
 H         5.395476         0.825987         2.142927
 H         1.661328        -0.902274         2.138776
 H         1.350506         0.753009         2.611308
 H        -0.720455        -0.011731         1.024433
 H        -0.754079         0.689076        -0.539937
 H         0.101825        -1.049542        -0.294766
 H         3.748427         2.316665         0.411081
 H         4.354560        -0.298189        -0.163162
