19
Iteration:  4645
 C         4.291568         0.611058         2.635911
 C         3.294730         0.740344         1.482083
 C         1.910625         0.485057         1.948600
 C         1.246183         0.306319         0.498225
 C        -0.126602         0.272247        -0.038242
 O         1.778909         1.483410        -0.104125
 C         3.176900         1.352480         0.156731
 C         3.424292        -0.150371         0.237770
 O         2.169712        -0.784573         0.010340
 H         4.410388         1.575005         3.144180
 H         3.882285        -0.022111         3.412124
 H         5.279943         0.283262         2.368854
 H         1.762030        -0.404169         2.644171
 H         1.410696         1.307655         2.524621
 H        -0.391477        -0.055746        -1.072575
 H        -0.796369        -0.251537         0.665397
 H        -0.622821         1.240339         0.024700
 H         3.807322         2.120152        -0.426508
 H         4.387678        -0.410648        -0.268710
