19
Iteration:  4610
 C         4.386090         0.656590         2.623053
 C         3.256030         0.681465         1.621568
 C         1.676090         0.531743         1.894094
 C         1.300305         0.423080         0.369761
 C        -0.165078         0.074963         0.153900
 O         1.934107         1.547138        -0.196054
 C         3.274746         1.251664         0.255464
 C         3.357798        -0.206408         0.284314
 O         2.078963        -0.637955        -0.140795
 H         4.171858         1.468009         3.298628
 H         4.551353        -0.243006         3.151885
 H         5.277661         0.979318         2.111368
 H         1.497910        -0.400509         2.485305
 H         1.281018         1.458894         2.335602
 H        -0.283016        -0.395209        -0.753902
 H        -0.306031        -0.706435         0.967635
 H        -0.709063         0.986366         0.315781
 H         3.903593         1.952807        -0.202314
 H         4.290874        -0.625619        -0.184821
