19
Iteration:  1024charge 0 multiplicity 1
 C         4.397906         0.232607         2.619062
 C         3.351102         0.302518         1.455441
 C         1.933524        -0.213501         1.696432
 C         1.298246         0.319455         0.451768
 C        -0.208792         0.073948         0.032525
 O         1.691566         1.750282         0.595972
 C         3.065044         1.631337         0.595138
 C         3.402572         0.330152         0.011356
 O         2.201570        -0.179243        -0.602973
 H         4.088824         0.797061         3.449944
 H         4.758731        -0.828927         2.774447
 H         5.360815         0.815530         2.388225
 H         1.976308        -1.294714         1.696106
 H         1.313670         0.208304         2.454275
 H        -0.910749         0.117777         0.838111
 H        -0.407643         0.865494        -0.699709
 H        -0.210657        -0.884646        -0.476842
 H         3.609877         2.583716         0.700986
 H         4.170192         0.366315        -0.779536
