19
Iteration:  2488charge 0 multiplicity 1
 C         4.321770         0.905742         2.628370
 C         3.263507         0.473134         1.553586
 C         1.750286         0.543168         1.936530
 C         1.283456         0.500061         0.457209
 C        -0.080034         0.242111         0.021776
 O         1.982496         1.555202        -0.270465
 C         3.249228         1.164668         0.273123
 C         3.342960        -0.395163         0.231033
 O         2.029246        -0.742404         0.055399
 H         4.109972         1.976874         2.512041
 H         4.092128         0.619044         3.580341
 H         5.336320         0.716514         2.283069
 H         1.341331        -0.334253         2.393578
 H         1.387306         1.447741         2.408264
 H        -0.308611        -0.786639         0.155372
 H        -0.847899         0.723273         0.686086
 H        -0.237806         0.608798        -0.973219
 H         4.127784         1.742531        -0.164368
 H         4.158210        -0.955073        -0.091213
