19
Iteration:  1885charge 0 multiplicity 1
 C         4.344222         0.549262         2.610295
 C         3.205365         0.509552         1.608409
 C         1.810617         0.369801         1.924757
 C         1.312602         0.416473         0.339363
 C        -0.123945         0.105845         0.063627
 O         1.870102         1.744338         0.016214
 C         3.263234         1.382917         0.341574
 C         3.293295        -0.156837         0.152143
 O         2.111508        -0.621215        -0.224052
 H         4.136774         1.429109         3.326482
 H         4.643471        -0.429654         2.886328
 H         5.189847         0.999950         2.145662
 H         1.755691        -0.649905         2.345801
 H         1.299752         1.086565         2.573322
 H        -0.326651         0.551750        -0.917210
 H        -0.146798        -1.059798         0.223706
 H        -0.786414         0.520910         0.897969
 H         3.959600         2.115195         0.016530
 H         4.219009        -0.672269        -0.091013
