19
Iteration:  2038
 C         4.391196         0.646901         2.675245
 C         3.290893         0.585870         1.654741
 C         1.769358         0.330452         1.854630
 C         1.279296         0.353318         0.397704
 C        -0.137697         0.352687         0.063827
 O         1.815186         1.507167        -0.177880
 C         3.187774         1.396262         0.150965
 C         3.391276        -0.091661         0.267200
 O         2.115986        -0.744203        -0.071383
 H         4.364529         1.092662         3.776143
 H         4.722714        -0.406612         2.970836
 H         5.262213         1.019490         2.118619
 H         1.428888        -0.592220         2.316149
 H         1.346171         1.141145         2.444815
 H        -0.573314        -0.474106         0.713777
 H        -0.547333         1.349773         0.488084
 H        -0.312541         0.213132        -1.025584
 H         3.974756         2.124047         0.062458
 H         4.283945        -0.586982        -0.087882
