19
Iteration:  4950
 C         4.313599         0.649321         2.615890
 C         3.242157         0.646987         1.560205
 C         1.825271         0.633698         1.899947
 C         1.340321         0.367353         0.461100
 C        -0.126447         0.114849         0.059279
 O         1.913851         1.538476        -0.250239
 C         3.259773         1.300843         0.102855
 C         3.375666        -0.169708         0.342387
 O         2.020977        -0.751261         0.047282
 H         3.896732         1.233423         3.499256
 H         4.538383        -0.377870         3.030301
 H         5.236572         1.208128         2.348401
 H         1.501573        -0.144354         2.592103
 H         1.507713         1.615011         2.251551
 H        -0.337917         0.204299        -1.055616
 H        -0.471828        -0.843921         0.273422
 H        -0.796477         0.724444         0.693184
 H         3.942233         2.091193        -0.309476
 H         4.180973        -0.851709        -0.010845
