19
Iteration:  1505charge 0 multiplicity 1
 C         4.323154         0.460009         2.562082
 C         3.240025         0.552583         1.534077
 C         1.914520        -0.012838         1.894388
 C         1.303902         0.332473         0.453181
 C        -0.111492         0.297677         0.081385
 O         1.724852         1.628182         0.237343
 C         3.084312         1.511114         0.432186
 C         3.447448         0.065039         0.139011
 O         2.219627        -0.507687        -0.441847
 H         3.916971         0.742832         3.517769
 H         4.349938        -0.632463         2.646177
 H         5.312898         0.960176         2.322060
 H         1.814469        -1.095041         2.094117
 H         1.425134         0.632893         2.651406
 H        -0.765012        -0.521955         0.371286
 H        -0.645628         1.187013         0.290240
 H        -0.103927         0.142623        -1.031857
 H         3.668164         2.370158         0.162057
 H         4.411007        -0.198724        -0.337593
