19
Iteration:  1965
 C         4.319933         0.680442         2.654106
 C         3.293827         0.501041         1.629623
 C         1.836484         0.311109         1.919190
 C         1.256171         0.433640         0.408686
 C        -0.201501         0.138513         0.079780
 O         1.931008         1.619398        -0.087636
 C         3.248112         1.351904         0.330310
 C         3.395840        -0.153343         0.156535
 O         2.043674        -0.580409        -0.244338
 H         4.419315         1.658052         3.015790
 H         4.220332         0.105244         3.509092
 H         5.273597         0.381112         2.223913
 H         1.534594        -0.633764         2.409491
 H         1.508436         1.104613         2.624623
 H        -0.963124         0.685410         0.653875
 H        -0.303243         0.351848        -0.941121
 H        -0.330158        -0.909451         0.298705
 H         3.908939         2.187776         0.072362
 H         4.267470        -0.731738        -0.133873
