19
Iteration:  2503charge 0 multiplicity 1
 C         4.273537         0.905353         2.593282
 C         3.246454         0.590573         1.593004
 C         1.799349         0.568461         1.901333
 C         1.314744         0.456701         0.382415
 C        -0.122838         0.249821         0.023074
 O         1.957091         1.551290        -0.141833
 C         3.302554         1.131129         0.119703
 C         3.320789        -0.315809         0.388571
 O         2.018924        -0.805322        -0.044359
 H         4.463412         1.867349         3.040431
 H         4.122704         0.205221         3.502720
 H         5.272451         0.531183         2.332210
 H         1.530356        -0.290995         2.588683
 H         1.561065         1.541476         2.457616
 H        -0.338328        -0.819161         0.344467
 H        -0.775635         0.953790         0.590279
 H        -0.328017         0.289250        -1.062555
 H         4.047445         1.738242        -0.262188
 H         4.129672        -1.013996        -0.005505
