19
Iteration:  4617
 C         4.366115         0.645182         2.638868
 C         3.250702         0.618070         1.595072
 C         1.720409         0.542498         1.881167
 C         1.256251         0.382025         0.450023
 C        -0.104322         0.094202         0.132696
 O         1.860986         1.550013        -0.230911
 C         3.279208         1.341923         0.239518
 C         3.400084        -0.201534         0.226191
 O         2.106954        -0.660795        -0.073282
 H         4.203630         1.553168         3.278381
 H         4.462723        -0.331027         3.208487
 H         5.405920         0.779643         2.209635
 H         1.336958        -0.329515         2.372195
 H         1.299130         1.386063         2.427677
 H        -0.262376        -0.301937        -0.924265
 H        -0.571132        -0.428571         0.949535
 H        -0.735716         1.005687         0.296414
 H         3.976937         2.018209        -0.289809
 H         4.293792        -0.670642        -0.061255
