19
Iteration:   840charge 0 multiplicity 1
 C         4.470634         0.133438         2.491177
 C         3.319412         0.325576         1.553447
 C         1.895748        -0.299569         1.670634
 C         1.255741         0.330813         0.408063
 C        -0.132597         0.009285         0.034222
 O         1.607952         1.791739         0.624091
 C         3.029633         1.616106         0.770515
 C         3.460200         0.385018        -0.017104
 O         2.218893         0.006077        -0.661067
 H         4.285859         0.439178         3.520153
 H         4.824815        -0.903471         2.371544
 H         5.353673         0.750893         2.111721
 H         1.724130        -1.371882         1.629311
 H         1.288363         0.120768         2.486826
 H        -0.275652        -0.957541         0.499211
 H        -0.932193         0.700988         0.343276
 H        -0.172826        -0.265035        -1.045169
 H         3.617126         2.540676         0.866456
 H         4.383259         0.187052        -0.548210
