19
Iteration:  4827
 C         4.303599         0.791240         2.550550
 C         3.248320         0.523634         1.529696
 C         1.716365         0.504830         1.930856
 C         1.320792         0.486308         0.423748
 C        -0.144524         0.067040         0.099456
 O         1.936592         1.617672        -0.120320
 C         3.337617         1.296230         0.286761
 C         3.369398        -0.318648         0.284371
 O         2.074521        -0.683551        -0.096993
 H         4.199639         1.900764         2.740581
 H         4.296198         0.215198         3.519129
 H         5.314805         0.629065         2.046210
 H         1.200150        -0.354073         2.259557
 H         1.322932         1.423342         2.285944
 H        -0.138684        -0.372697        -0.871711
 H        -0.645308        -0.612958         0.910776
 H        -0.744583         0.993682         0.122346
 H         4.007792         2.002477        -0.277329
 H         4.112759        -1.001702         0.044704
