19
Iteration:  1758
 C         4.377549         0.467753         2.578574
 C         3.216396         0.504033         1.558956
 C         1.766355         0.241393         1.928972
 C         1.284224         0.384152         0.417595
 C        -0.217252         0.049923         0.067340
 O         1.874943         1.811298         0.103456
 C         3.150194         1.449787         0.316671
 C         3.437026        -0.068398         0.170195
 O         2.223418        -0.511507        -0.289664
 H         4.369379         1.304300         3.155850
 H         4.041835        -0.274929         3.304067
 H         5.262773         0.137223         1.945377
 H         1.537062        -0.760693         2.399142
 H         1.271805         1.090092         2.454858
 H        -0.348645        -0.612714         0.887490
 H        -0.981792         0.854245         0.093130
 H        -0.055128        -0.467148        -0.825442
 H         3.857665         2.150751         0.052628
 H         4.219224        -0.565557        -0.380649
