19
Iteration:  3629
 C         4.276640         0.752263         2.568487
 C         3.262628         0.566785         1.548009
 C         1.813104         0.580203         1.923390
 C         1.289405         0.422682         0.463604
 C        -0.182921         0.195365        -0.010655
 O         1.928670         1.498967        -0.229796
 C         3.304917         1.320774         0.226337
 C         3.405784        -0.288546         0.303995
 O         2.065207        -0.731869         0.044065
 H         3.826132         1.477372         3.249684
 H         4.301292        -0.148465         3.200764
 H         5.253664         1.007983         2.136210
 H         1.637367        -0.309121         2.542439
 H         1.358578         1.424525         2.486069
 H        -0.103915        -0.261139        -0.958487
 H        -0.659462        -0.466106         0.770665
 H        -0.759202         1.080667        -0.099464
 H         3.904604         2.204513        -0.133021
 H         4.225879        -0.905926         0.064377
