19
Iteration:   759charge 0 multiplicity 1
 C         4.449380         0.127342         2.394951
 C         3.252925         0.311310         1.553997
 C         1.975582        -0.362787         1.671430
 C         1.331972         0.370196         0.350326
 C        -0.127848         0.066063         0.063990
 O         1.545572         1.754568         0.594333
 C         2.977783         1.588876         0.912243
 C         3.419482         0.445364         0.014188
 O         2.296852        -0.010433        -0.681040
 H         4.306911         0.401792         3.479556
 H         4.679403        -1.026732         2.378712
 H         5.262201         0.742003         1.901090
 H         2.107458        -1.465597         1.630586
 H         1.196077        -0.140635         2.429817
 H        -0.489699         1.134626         0.216288
 H        -0.271853        -0.285887        -0.993933
 H        -0.489102        -0.666458         0.814546
 H         3.340421         2.628776         1.055048
 H         4.439762         0.227313        -0.485016
