19
Iteration:  3165
 C         4.327773         0.707273         2.640705
 C         3.226383         0.647631         1.593375
 C         1.869376         0.550021         1.968504
 C         1.238395         0.386365         0.479982
 C        -0.177640         0.275626        -0.012903
 O         1.891869         1.375778        -0.308874
 C         3.244579         1.331611         0.095365
 C         3.374194        -0.211856         0.364431
 O         2.101788        -0.720249         0.012987
 H         4.248414         1.458054         3.444616
 H         4.210596        -0.146944         3.244078
 H         5.340547         0.696384         2.302972
 H         1.490684        -0.413915         2.423728
 H         1.479194         1.545254         2.375903
 H        -0.361158        -0.804415        -0.219406
 H        -0.793436         0.639478         0.889132
 H        -0.076673         0.964104        -0.838371
 H         4.014627         2.166170         0.043585
 H         4.228008        -0.863143         0.074967
