19
Iteration:  1564
 C         4.358283         0.468836         2.513287
 C         3.202304         0.365298         1.606824
 C         1.752791         0.168428         1.875167
 C         1.362618         0.385377         0.390739
 C        -0.120511         0.044415         0.076918
 O         1.806343         1.730800         0.241602
 C         3.148119         1.460219         0.432457
 C         3.408913        -0.012059         0.087114
 O         2.193279        -0.347252        -0.428029
 H         4.187833         1.410086         3.049971
 H         4.521671        -0.397474         3.175626
 H         5.339119         0.573802         2.021458
 H         1.516685        -0.837686         2.229388
 H         1.401611         0.862908         2.634352
 H        -0.127947        -0.711880        -0.731476
 H        -0.661174        -0.323744         1.030148
 H        -0.586872         1.003208        -0.177969
 H         3.752017         2.421508         0.472939
 H         4.230500        -0.709575         0.050355
