19
Iteration:   836
 C         4.467061         0.096356         2.486329
 C         3.308638         0.341494         1.530051
 C         1.881374        -0.295561         1.718995
 C         1.282874         0.328981         0.419667
 C        -0.137751        -0.002286         0.006261
 O         1.610895         1.769797         0.627618
 C         3.031169         1.631405         0.764864
 C         3.443208         0.451240        -0.034010
 O         2.225523         0.020667        -0.648618
 H         4.330456         0.380891         3.517684
 H         4.852727        -0.997585         2.413790
 H         5.251112         0.849227         2.100413
 H         1.733398        -1.415085         1.710871
 H         1.366510         0.171953         2.548533
 H        -0.348768        -0.982689         0.511813
 H        -0.876872         0.767246         0.253038
 H        -0.020453        -0.391868        -1.028536
 H         3.668787         2.490412         0.736022
 H         4.252233        -0.121452        -0.558120
