19
Iteration:  2403
 C         4.323664         0.726667         2.700437
 C         3.260886         0.654547         1.532790
 C         1.790664         0.683994         1.884484
 C         1.262793         0.485892         0.470844
 C        -0.196352         0.130939         0.071259
 O         1.940403         1.509379        -0.306951
 C         3.359126         1.205966         0.119686
 C         3.334450        -0.300303         0.404048
 O         2.026131        -0.753226        -0.012139
 H         4.250368         1.310788         3.634127
 H         4.561841        -0.341546         3.029702
 H         5.332456         1.006671         2.317343
 H         1.458407        -0.150775         2.533092
 H         1.449971         1.682664         2.251444
 H        -0.353844        -0.937244         0.173037
 H        -0.994122         0.750089         0.614045
 H        -0.272212         0.357799        -0.988472
 H         4.153581         1.915715        -0.294152
 H         4.241535        -0.771050         0.194819
