19
Iteration:   632charge 0 multiplicity 1
 C         4.475051        -0.008327         2.307619
 C         3.246649         0.315450         1.556540
 C         1.898940        -0.362476         1.694051
 C         1.301238         0.357914         0.401488
 C        -0.125418        -0.065148        -0.060137
 O         1.610112         1.785021         0.777884
 C         3.000966         1.718043         0.885482
 C         3.432279         0.535156        -0.016917
 O         2.258443         0.053212        -0.663053
 H         4.289007         0.000435         3.424544
 H         4.829952        -0.976714         1.941332
 H         5.346052         0.702624         2.116369
 H         1.842871        -1.484093         1.579442
 H         1.263113        -0.013993         2.499847
 H        -0.110221        -1.155058         0.111666
 H        -0.911631         0.415081         0.512262
 H        -0.225163         0.082668        -1.143480
 H         3.496618         2.698019         0.999771
 H         4.436875         0.450935        -0.514349
