19
Iteration:  3964charge 0 multiplicity 1
 C         4.308089         0.721290         2.621905
 C         3.205424         0.719499         1.623476
 C         1.728053         0.530021         1.871136
 C         1.274854         0.360585         0.387453
 C        -0.141250         0.147262         0.099363
 O         1.926041         1.539636        -0.194834
 C         3.331763         1.231985         0.128357
 C         3.389018        -0.204227         0.359467
 O         2.107440        -0.717368        -0.075424
 H         4.412684         1.616612         3.272077
 H         4.214122        -0.099498         3.347314
 H         5.321931         0.677227         2.168928
 H         1.493566        -0.214467         2.604148
 H         1.242975         1.459416         2.191258
 H        -0.438327         0.374261        -0.932285
 H        -0.597731        -0.877605         0.453334
 H        -0.768827         0.897456         0.687666
 H         4.220989         1.835137        -0.190044
 H         4.131986        -0.926275         0.188398
