19
Iteration:  1271
 C         4.521311         0.220651         2.522357
 C         3.285978         0.420370         1.657304
 C         1.766045         0.003844         1.841259
 C         1.245618         0.328280         0.412722
 C        -0.134222         0.050765         0.038841
 O         1.671928         1.738251         0.282102
 C         3.090122         1.570650         0.569995
 C         3.459291         0.213120         0.142099
 O         2.200570        -0.247028        -0.581836
 H         4.468606         0.825932         3.529413
 H         4.793383        -0.797085         2.830054
 H         5.281017         0.568647         1.853057
 H         1.528839        -1.080916         2.067004
 H         1.351145         0.653620         2.648677
 H        -0.447186        -0.771076         0.709222
 H        -0.746008         0.964658         0.337271
 H        -0.151716        -0.246992        -1.048683
 H         3.722198         2.478409         0.617077
 H         4.341734        -0.145309        -0.397606
