19
Iteration:  4482charge 0 multiplicity 1
 C         4.359095         0.721915         2.601473
 C         3.207620         0.576450         1.649493
 C         1.719486         0.573083         1.871619
 C         1.269908         0.355496         0.384699
 C        -0.229058         0.027481         0.152727
 O         1.970045         1.622987        -0.175171
 C         3.302112         1.251237         0.294652
 C         3.368705        -0.231890         0.231585
 O         2.131263        -0.591215        -0.142751
 H         4.522042         1.809934         2.826551
 H         4.452348         0.272684         3.622498
 H         5.182259         0.265967         2.013315
 H         1.393685        -0.190587         2.553583
 H         1.135905         1.348512         2.260949
 H        -0.361599        -0.177845        -0.854984
 H        -0.271454        -0.856899         0.836107
 H        -0.926139         0.843979         0.313567
 H         4.005893         1.852008        -0.270838
 H         4.192572        -0.978814         0.113524
