19
Iteration:  4045charge 0 multiplicity 1
 C         4.323339         0.879066         2.738173
 C         3.319685         0.547918         1.571176
 C         1.910206         0.504121         1.980292
 C         1.283217         0.443847         0.504892
 C        -0.174139         0.202346        -0.070190
 O         1.865336         1.519143        -0.148744
 C         3.225436         1.233017         0.184548
 C         3.372852        -0.323507         0.192889
 O         2.015626        -0.694397        -0.068725
 H         3.914098         1.714880         3.295960
 H         4.410070         0.060272         3.477006
 H         5.278991         1.125328         2.285141
 H         1.652472        -0.467209         2.485578
 H         1.540030         1.350454         2.573399
 H         0.104385        -0.305848        -1.037526
 H        -0.688197        -0.478387         0.523329
 H        -0.686717         1.172047        -0.240753
 H         4.032295         1.766625        -0.276905
 H         4.135019        -1.001594        -0.258954
