19
Iteration:   524
 C         4.459456         0.027887         2.394521
 C         3.300135         0.279003         1.428646
 C         2.019821        -0.453811         1.533361
 C         1.289734         0.343343         0.400361
 C        -0.075146        -0.000950        -0.034745
 O         1.534091         1.745696         0.840559
 C         2.950896         1.637594         0.998846
 C         3.432575         0.538297        -0.053192
 O         2.200065         0.173820        -0.705510
 H         4.348711         0.279910         3.497266
 H         4.815300        -0.948798         2.360114
 H         5.304947         0.625119         2.022485
 H         2.154889        -1.550252         1.653896
 H         1.556806        -0.186605         2.463632
 H        -0.581789         0.850439        -0.467212
 H        -0.006751        -0.814020        -0.739569
 H        -0.724917        -0.375901         0.736180
 H         3.433022         2.497071         1.443272
 H         4.329857         0.473681        -0.568081
