19
Iteration:  2371
 C         4.267615         0.719577         2.614223
 C         3.278376         0.594824         1.547889
 C         1.711447         0.666896         1.890514
 C         1.277240         0.427393         0.470075
 C        -0.174153         0.167156         0.075553
 O         1.947019         1.523909        -0.254811
 C         3.327330         1.248915         0.143819
 C         3.393828        -0.280293         0.319980
 O         2.077717        -0.775835         0.039533
 H         4.047530         1.424860         3.425182
 H         4.395872        -0.343147         3.031678
 H         5.228072         0.955917         2.116000
 H         1.444610        -0.063635         2.682780
 H         1.516947         1.723511         2.201167
 H        -0.655127        -0.454177         0.810540
 H        -0.652808         1.200309         0.134075
 H        -0.271923        -0.089128        -0.964911
 H         4.210141         1.873194        -0.173448
 H         4.278889        -0.761174         0.001814
