19
Iteration:  1258
 C         4.502113         0.312677         2.468156
 C         3.228110         0.287966         1.580887
 C         1.740817        -0.029336         1.792239
 C         1.352639         0.401081         0.362374
 C        -0.164766         0.034893         0.055268
 O         1.749107         1.766370         0.415414
 C         3.091314         1.585324         0.588316
 C         3.402898         0.181754         0.079368
 O         2.230446        -0.254994        -0.467240
 H         4.399806         1.028720         3.336662
 H         4.580279        -0.767121         2.843302
 H         5.499602         0.622080         2.075617
 H         1.593377        -1.084312         2.069307
 H         1.101229         0.626693         2.376010
 H        -0.604055        -0.627345         0.808253
 H        -0.866536         0.837260        -0.198282
 H        -0.211884        -0.554919        -0.916223
 H         3.621789         2.447916         0.282617
 H         4.294510        -0.001918        -0.392942
