19
Iteration:  4059charge 0 multiplicity 1
 C         4.300285         0.900849         2.592320
 C         3.327235         0.450199         1.566523
 C         1.707416         0.421220         1.942275
 C         1.236471         0.367270         0.481642
 C        -0.190672         0.224040        -0.000731
 O         1.996114         1.574464        -0.143562
 C         3.322402         1.228052         0.170955
 C         3.362835        -0.212197         0.215456
 O         2.079677        -0.737587         0.008691
 H         3.912527         1.927316         2.912262
 H         4.431050         0.189499         3.457565
 H         5.380721         1.093118         2.393171
 H         1.397255        -0.528870         2.506582
 H         1.521543         1.369852         2.525350
 H        -0.330762        -0.076301        -1.057729
 H        -0.819558        -0.482801         0.594312
 H        -0.698842         1.178184        -0.035141
 H         3.965133         2.123475        -0.055396
 H         4.159956        -0.769968        -0.136940
