19
Iteration:  4449
 C         4.291275         0.662794         2.633331
 C         3.301591         0.591640         1.551345
 C         1.872897         0.491986         1.918440
 C         1.318489         0.359455         0.436861
 C        -0.083629         0.177380         0.025767
 O         1.798022         1.569730        -0.190320
 C         3.167820         1.366745         0.215230
 C         3.379233        -0.203892         0.253339
 O         2.106579        -0.681958         0.004060
 H         4.599430         1.709806         2.851780
 H         3.890400         0.128181         3.522246
 H         5.248247         0.172239         2.342837
 H         1.716199        -0.406691         2.489211
 H         1.495625         1.376504         2.331771
 H        -0.127502        -0.346958        -0.854013
 H        -0.668949        -0.448203         0.714943
 H        -0.689702         1.044567         0.038997
 H         3.843094         2.078037        -0.308229
 H         4.164313        -0.886372         0.005284
