19
Iteration:  3908
 C         4.325886         0.952726         2.612218
 C         3.261565         0.609498         1.591830
 C         1.721954         0.403183         1.933770
 C         1.274974         0.353259         0.480431
 C        -0.200515         0.350065        -0.006234
 O         1.911198         1.483127        -0.097208
 C         3.309815         1.221110         0.191330
 C         3.437319        -0.297077         0.287802
 O         2.111180        -0.773688        -0.104653
 H         4.183099         2.045503         2.891815
 H         4.274250         0.482711         3.614879
 H         5.303359         0.664127         2.182904
 H         1.611808        -0.567467         2.444513
 H         1.334513         1.217152         2.571436
 H        -0.251138         0.429390        -1.175727
 H        -0.819518        -0.664933         0.073351
 H        -0.819134         1.050479         0.611529
 H         3.953676         1.828461        -0.409830
 H         4.221082        -0.981124        -0.099630
