19
Iteration:  1200charge 0 multiplicity 1
 C         4.416444         0.350877         2.640078
 C         3.323200         0.397255         1.519837
 C         1.937100        -0.153504         1.765617
 C         1.295523         0.223978         0.387756
 C        -0.229970         0.239647         0.066671
 O         1.650332         1.726540         0.452888
 C         3.018776         1.607924         0.541483
 C         3.478718         0.229094         0.000821
 O         2.232690        -0.365266        -0.542263
 H         4.187123         0.788718         3.561526
 H         4.645391        -0.708048         2.995421
 H         5.428648         0.619089         2.183498
 H         1.960856        -1.220474         1.820895
 H         1.318606         0.312961         2.514617
 H        -0.618644         1.221198         0.361483
 H        -0.262013         0.262220        -1.001812
 H        -0.719569        -0.584882         0.523193
 H         3.525245         2.612040         0.600703
 H         4.442026         0.166063        -0.627400
