19
Iteration:  4627
 C         4.325873         0.642248         2.634896
 C         3.267004         0.538956         1.540596
 C         1.804773         0.518583         1.902890
 C         1.330193         0.369045         0.484254
 C        -0.157925         0.165265         0.118195
 O         1.814502         1.558609        -0.231246
 C         3.196277         1.412691         0.161881
 C         3.418031        -0.116002         0.240781
 O         2.146801        -0.740450        -0.003146
 H         4.286377         1.492765         3.373156
 H         4.115185        -0.249979         3.324054
 H         5.354681         0.538968         2.190579
 H         1.516258        -0.359795         2.467883
 H         1.451267         1.452732         2.360295
 H        -0.198010        -0.278906        -0.966925
 H        -0.724927        -0.557071         0.684118
 H        -0.588620         1.194204        -0.024786
 H         3.992897         2.137936        -0.117068
 H         4.122057        -0.853769         0.021506
