19
Iteration:  3913
 C         4.335356         0.974825         2.642364
 C         3.302888         0.563316         1.598568
 C         1.753388         0.432826         1.945900
 C         1.242812         0.341664         0.476036
 C        -0.147124         0.329280        -0.012105
 O         1.936531         1.482951        -0.107023
 C         3.210353         1.199881         0.169423
 C         3.414464        -0.279259         0.256860
 O         2.078966        -0.767483        -0.091348
 H         4.292894         2.009866         2.923175
 H         4.150625         0.464137         3.596149
 H         5.382135         0.775400         2.372018
 H         1.642194        -0.542661         2.424812
 H         1.215229         1.157166         2.576265
 H        -0.051159         0.571642        -1.028107
 H        -0.650917        -0.608249         0.054234
 H        -0.830514         1.027566         0.468830
 H         4.022220         1.794052        -0.317790
 H         4.153252        -0.880065        -0.251716
