19
Iteration:  4729
 C         4.369361         0.814752         2.645305
 C         3.207705         0.621977         1.587864
 C         1.838036         0.475185         1.936222
 C         1.316430         0.422747         0.377378
 C        -0.200212         0.198740         0.069056
 O         1.905053         1.525325        -0.151189
 C         3.212137         1.255516         0.227743
 C         3.363071        -0.257583         0.294550
 O         2.107396        -0.748689        -0.113834
 H         3.956639         1.596033         3.322234
 H         4.477757        -0.088032         3.268030
 H         5.376460         1.155383         2.293088
 H         1.664596        -0.463659         2.455016
 H         1.485304         1.400479         2.346964
 H        -0.287263         0.607482        -0.907810
 H        -0.504965        -0.902641         0.053914
 H        -0.812291         0.810593         0.735730
 H         3.880099         1.954452        -0.353980
 H         4.204838        -0.900409        -0.065080
