19
Iteration:  1017
 C         4.399689         0.214904         2.579728
 C         3.326048         0.354779         1.537640
 C         1.974994        -0.232436         1.678720
 C         1.275761         0.284449         0.446462
 C        -0.133281         0.110824         0.029130
 O         1.667157         1.712219         0.575399
 C         3.068392         1.668012         0.597392
 C         3.384879         0.392968        -0.017362
 O         2.190961        -0.190359        -0.578906
 H         4.054836         0.510020         3.611490
 H         4.559978        -0.841019         2.729773
 H         5.292449         0.713964         2.304473
 H         1.874865        -1.313913         1.712502
 H         1.442598         0.179055         2.582166
 H        -0.920881         0.321073         0.805032
 H        -0.293433         0.738103        -0.868516
 H        -0.261523        -0.945987        -0.229591
 H         3.738374         2.486799         0.493823
 H         4.140166         0.284471        -0.731332
