19
Iteration:  4404
 C         4.345685         0.776347         2.562168
 C         3.230331         0.644679         1.592855
 C         1.764891         0.458599         1.821864
 C         1.278178         0.234785         0.364887
 C        -0.147217         0.272037         0.136983
 O         1.873989         1.548556        -0.153329
 C         3.263983         1.304367         0.236270
 C         3.365530        -0.255405         0.384833
 O         2.134392        -0.733178        -0.098008
 H         4.080148         1.750972         3.053520
 H         4.614268        -0.023198         3.294798
 H         5.301000         1.101200         2.082789
 H         1.682641        -0.510990         2.305997
 H         1.214167         1.133617         2.393730
 H        -0.341365         0.107352        -0.857430
 H        -0.910069        -0.286465         0.703188
 H        -0.425242         1.251224         0.447526
 H         4.135758         1.933053        -0.076547
 H         4.215786        -0.759002         0.039175
