19
Iteration:  1012
 C         4.384743         0.191296         2.556269
 C         3.330480         0.411100         1.566546
 C         1.957897        -0.251209         1.712375
 C         1.300463         0.291134         0.435301
 C        -0.094322         0.126149         0.027233
 O         1.622698         1.716365         0.544612
 C         3.045366         1.651220         0.643912
 C         3.393465         0.398076        -0.079104
 O         2.185771        -0.187939        -0.555798
 H         4.031877         0.386599         3.568689
 H         4.564961        -0.922550         2.682746
 H         5.355866         0.685630         2.249151
 H         1.920376        -1.360479         1.745953
 H         1.585797         0.107751         2.658313
 H        -0.786689         0.503245         0.753572
 H        -0.261103         0.616255        -0.931677
 H        -0.310584        -0.947767        -0.097125
 H         3.702910         2.536491         0.422220
 H         4.354602         0.133985        -0.649080
