19
Iteration:  3974
 C         4.364449         0.675319         2.680013
 C         3.188639         0.711745         1.622486
 C         1.683055         0.596984         1.870354
 C         1.352434         0.299919         0.350145
 C        -0.149877         0.190801         0.154020
 O         1.931488         1.518325        -0.308206
 C         3.253056         1.360871         0.235672
 C         3.374518        -0.250996         0.400173
 O         2.100240        -0.741140        -0.102589
 H         4.410202         1.612492         3.288238
 H         4.448119        -0.296511         3.174780
 H         5.186501         0.608486         1.941032
 H         1.535579        -0.297189         2.460513
 H         1.155974         1.487824         2.234397
 H        -0.382386         0.226536        -0.930704
 H        -0.297282        -0.896485         0.551413
 H        -0.512203         1.049118         0.754649
 H         3.934546         1.988749        -0.391034
 H         4.135778        -0.957293         0.296430
