19
Iteration:  2194
 C         4.322655         0.723627         2.596120
 C         3.215362         0.535279         1.558627
 C         1.713890         0.567973         1.943474
 C         1.245974         0.414532         0.469693
 C        -0.151244         0.200265         0.077845
 O         1.984527         1.642243        -0.143580
 C         3.254522         1.202379         0.047211
 C         3.424815        -0.294440         0.349957
 O         2.097740        -0.704990        -0.081100
 H         3.811371         1.451143         3.323625
 H         4.499785        -0.164178         3.143553
 H         5.280943         1.194506         2.209156
 H         1.637305        -0.394077         2.429013
 H         1.240025         1.279155         2.609719
 H        -0.620892         1.092929        -0.271163
 H         0.000607        -0.605648        -0.574569
 H        -0.824148        -0.122314         0.882875
 H         4.064089         2.014562        -0.174508
 H         4.203746        -0.960541         0.064337
