19
Iteration:  1523
 C         4.389695         0.452514         2.653243
 C         3.321343         0.459920         1.532758
 C         1.864128        -0.001782         1.848700
 C         1.267352         0.256191         0.455226
 C        -0.139124         0.272101        -0.004218
 O         1.696586         1.684163         0.171140
 C         3.102224         1.540309         0.419603
 C         3.441692         0.058766         0.051087
 O         2.181315        -0.457944        -0.306000
 H         4.071974         1.109248         3.590920
 H         4.756818        -0.437223         3.168839
 H         5.247876         0.926444         2.286582
 H         1.997155        -1.076087         1.961051
 H         1.271101         0.447330         2.659565
 H        -0.566784        -0.777817         0.021098
 H        -0.545759         0.935407         0.775792
 H        -0.231907         0.807676        -0.900512
 H         3.702830         2.501496         0.242961
 H         4.196045        -0.524831        -0.558961
