19
Iteration:  4216charge 0 multiplicity 1
 C         4.314608         0.879598         2.541556
 C         3.201872         0.672891         1.580533
 C         1.753710         0.365675         1.926083
 C         1.277998         0.202256         0.458019
 C        -0.206469         0.402522         0.090953
 O         1.992847         1.452910        -0.232568
 C         3.179866         1.365734         0.249913
 C         3.455642        -0.262962         0.347173
 O         2.109669        -0.782334        -0.115421
 H         4.192209         1.735915         3.294262
 H         4.332924        -0.139592         3.048064
 H         5.342190         1.054872         2.044345
 H         1.723282        -0.542915         2.501609
 H         1.201609         1.082789         2.562101
 H        -0.351714         0.086641        -1.005574
 H        -0.823375        -0.059490         0.803765
 H        -0.330649         1.501825         0.267330
 H         4.050157         1.989507        -0.148534
 H         4.215659        -0.980992         0.429051
