19
Iteration:   266
 C         4.580138        -0.059603         2.247811
 C         3.384830         0.246585         1.434442
 C         2.033587        -0.556581         1.417829
 C         1.307702         0.279925         0.377191
 C        -0.147280         0.051173        -0.075423
 O         1.453925         1.600819         0.968490
 C         2.824112         1.664526         1.189552
 C         3.384297         0.833516         0.035545
 O         2.291442         0.251559        -0.732057
 H         4.302651        -0.176379         3.304624
 H         5.078625        -1.054934         1.928638
 H         5.286935         0.731539         2.177744
 H         2.249574        -1.547967         1.045639
 H         1.516835        -0.694071         2.377836
 H        -0.260603        -0.342043        -1.098567
 H        -0.575468        -0.650856         0.626317
 H        -0.663303         1.007128        -0.024476
 H         3.312833         2.570181         1.510072
 H         4.324204         1.023012        -0.568363
