19
Iteration:  2115
 C         4.335299         0.656200         2.610230
 C         3.242913         0.677077         1.595771
 C         1.822537         0.393742         1.939447
 C         1.274406         0.394931         0.382066
 C        -0.166980         0.258732         0.080014
 O         1.896644         1.535813        -0.200466
 C         3.249940         1.378000         0.224233
 C         3.350190        -0.193659         0.297799
 O         2.102568        -0.762586        -0.092675
 H         4.595021         1.703565         3.063996
 H         4.082871        -0.013318         3.453466
 H         5.321725         0.306170         2.239776
 H         1.703409        -0.561516         2.407631
 H         1.310068         1.199675         2.408197
 H        -0.297964        -0.131103        -0.977732
 H        -0.720657        -0.396730         0.730656
 H        -0.550007         1.245507         0.249202
 H         3.933959         2.201471         0.194798
 H         4.251711        -0.731374        -0.073577
