19
Iteration:  1987
 C         4.365149         0.743397         2.627294
 C         3.313204         0.442130         1.588870
 C         1.713643         0.355685         1.871168
 C         1.268658         0.403617         0.404360
 C        -0.125377         0.194973         0.070373
 O         1.904990         1.704292        -0.008184
 C         3.243192         1.295537         0.322438
 C         3.339950        -0.239779         0.156615
 O         2.095479        -0.632655        -0.198979
 H         4.038711         1.654422         3.019832
 H         4.436142         0.082696         3.420900
 H         5.371847         0.893195         2.233049
 H         1.419082        -0.606002         2.331389
 H         1.246084         1.102782         2.530191
 H        -0.729343         0.206354         0.978597
 H        -0.434650         0.876070        -0.646496
 H        -0.139237        -0.831520        -0.225911
 H         4.091456         1.891750         0.031496
 H         4.189566        -0.781608        -0.287523
