19
Iteration:   362charge 0 multiplicity 1
 C         4.505356        -0.072284         2.290965
 C         3.327857         0.296995         1.450278
 C         2.055886        -0.565815         1.524268
 C         1.340557         0.231994         0.358521
 C        -0.211080         0.015517         0.014868
 O         1.492086         1.642249         0.816958
 C         2.864714         1.668962         1.117088
 C         3.485914         0.744839        -0.033893
 O         2.303164         0.324214        -0.710481
 H         4.319092         0.236926         3.390139
 H         4.678266        -1.155734         2.368905
 H         5.335527         0.513613         1.938551
 H         2.020163        -1.623643         1.185825
 H         1.563001        -0.625787         2.450692
 H        -0.745572         0.644390         0.764684
 H        -0.392321         0.372573        -1.002442
 H        -0.632233        -0.982789         0.161060
 H         3.193670         2.578730         1.662820
 H         4.419172         0.756702        -0.711704
