19
Iteration:  2439charge 0 multiplicity 1
 C         4.376265         0.856262         2.625949
 C         3.205194         0.640076         1.615707
 C         1.716513         0.557749         1.806328
 C         1.292539         0.354296         0.409165
 C        -0.080649         0.389029         0.128419
 O         1.869573         1.453927        -0.284842
 C         3.324371         1.282887         0.184800
 C         3.342704        -0.307427         0.391696
 O         2.092273        -0.891158         0.019861
 H         4.258119         1.741905         3.237176
 H         4.238786        -0.140438         3.217201
 H         5.289111         0.775213         2.024253
 H         1.426956        -0.342856         2.430614
 H         1.251994         1.473781         2.256148
 H        -0.458051        -0.632512        -0.122477
 H        -0.821658         0.773278         0.821921
 H        -0.079423         0.972768        -0.812630
 H         4.050684         1.937028        -0.216410
 H         4.248895        -0.871857         0.026299
