19
Iteration:  4554charge 0 multiplicity 1
 C         4.347064         0.809851         2.685347
 C         3.294343         0.637082         1.554244
 C         1.856076         0.450642         1.919512
 C         1.260891         0.412360         0.513486
 C        -0.118660         0.335052         0.011484
 O         1.817223         1.458173        -0.192976
 C         3.201132         1.307716         0.232166
 C         3.365490        -0.241125         0.205204
 O         2.106369        -0.848269        -0.075723
 H         3.952614         1.250469         3.588426
 H         4.837949        -0.088416         3.042881
 H         5.146039         1.398499         2.248422
 H         1.630949        -0.456972         2.566911
 H         1.567911         1.269478         2.639469
 H        -0.195202         0.768988        -0.978586
 H        -0.559234        -0.723683         0.060768
 H        -0.861112         1.027470         0.513161
 H         3.863007         2.012240        -0.332589
 H         4.279417        -0.789606         0.056307
