19
Iteration:  2857charge 0 multiplicity 1
 C         4.387123         0.694117         2.697980
 C         3.213538         0.686506         1.598461
 C         1.720602         0.603218         1.879611
 C         1.276993         0.373028         0.401372
 C        -0.223964         0.291134         0.059668
 O         1.941272         1.400273        -0.346111
 C         3.250175         1.278152         0.113208
 C         3.410656        -0.224494         0.379209
 O         2.153888        -0.776479         0.089729
 H         4.611904         1.709639         2.984174
 H         4.061593         0.102464         3.559122
 H         5.206540         0.158874         2.211650
 H         1.484276        -0.341654         2.427995
 H         1.389562         1.568314         2.359784
 H        -0.613463        -0.698056        -0.243922
 H        -0.820178         0.573496         0.969670
 H        -0.495500         1.042561        -0.713595
 H         3.855451         2.100130        -0.418383
 H         4.298977        -0.649628        -0.022972
