19
Iteration:  2877charge 0 multiplicity 1
 C         4.264610         0.722996         2.586513
 C         3.237599         0.689873         1.517973
 C         1.789243         0.650101         1.955819
 C         1.317351         0.437149         0.481133
 C        -0.068457         0.245356         0.062117
 O         1.879452         1.507299        -0.277038
 C         3.267656         1.247669         0.139416
 C         3.329947        -0.304464         0.365107
 O         2.109039        -0.819649         0.022641
 H         4.389463         1.657793         3.087282
 H         4.006713        -0.020507         3.384305
 H         5.246627         0.360099         2.272395
 H         1.504920        -0.280591         2.472728
 H         1.210296         1.543537         2.224245
 H        -0.078038        -0.827313        -0.133748
 H        -0.933248         0.496458         0.747597
 H        -0.286098         0.744731        -0.857866
 H         4.133475         1.835105        -0.289252
 H         4.252943        -0.802059         0.429706
