19
Iteration:   519
 C         4.451494         0.014614         2.374151
 C         3.329229         0.305485         1.428909
 C         2.018385        -0.430883         1.545399
 C         1.321437         0.349256         0.403521
 C        -0.077170        -0.027092        -0.080387
 O         1.501981         1.773096         0.904483
 C         2.980331         1.628196         0.993510
 C         3.392317         0.553808        -0.064657
 O         2.211401         0.128227        -0.711433
 H         4.183395         0.292821         3.377671
 H         4.816861        -1.108554         2.272460
 H         5.406250         0.601200         2.142858
 H         2.193456        -1.509867         1.624521
 H         1.531458        -0.098610         2.512016
 H        -0.587746         0.825604        -0.588232
 H        -0.048732        -0.965587        -0.692714
 H        -0.825146        -0.159406         0.767570
 H         3.414280         2.531716         1.436002
 H         4.416356         0.467703        -0.568256
