19
Iteration:  4990charge 0 multiplicity 1
 C         4.340488         0.746370         2.612670
 C         3.249582         0.644061         1.586568
 C         1.745432         0.449786         1.925980
 C         1.235045         0.261443         0.406634
 C        -0.186362         0.336428         0.041205
 O         1.882564         1.443550        -0.288779
 C         3.211299         1.357057         0.121971
 C         3.417161        -0.156842         0.394275
 O         2.163366        -0.810448         0.050535
 H         4.432115         1.591604         3.280710
 H         4.555795        -0.118324         3.228523
 H         5.170311         0.818297         1.903065
 H         1.617444        -0.415286         2.539872
 H         1.470288         1.389593         2.359140
 H        -0.355611         0.411165        -1.072172
 H        -0.801664        -0.314275         0.672204
 H        -0.453609         1.360720         0.430788
 H         3.936181         2.102846        -0.168133
 H         4.457200        -0.652963         0.130733
