19
Iteration:  1911charge 0 multiplicity 1
 C         4.405248         0.479274         2.609140
 C         3.290347         0.598030         1.596695
 C         1.746562         0.350622         1.919565
 C         1.285264         0.348389         0.406852
 C        -0.217894         0.184813         0.063306
 O         1.775444         1.556947        -0.109069
 C         3.226481         1.431471         0.305884
 C         3.428383        -0.070069         0.191860
 O         2.197681        -0.564266        -0.128695
 H         4.422064         1.342693         3.223690
 H         4.078772        -0.480821         3.123874
 H         5.507445         0.285624         2.288438
 H         1.537239        -0.656083         2.393012
 H         1.232922         1.134681         2.535119
 H        -0.260673         1.161850        -0.465266
 H        -0.375416        -0.684043        -0.550363
 H        -0.875332         0.238431         0.880371
 H         3.787469         2.397188         0.072559
 H         4.321396        -0.511077        -0.252000
