19
Iteration:  1537charge 0 multiplicity 1
 C         4.417306         0.525767         2.639261
 C         3.312388         0.381966         1.591258
 C         1.850890         0.003678         1.852716
 C         1.319606         0.371515         0.417571
 C        -0.231914         0.195156         0.044922
 O         1.783054         1.728400         0.174701
 C         3.120644         1.488383         0.473772
 C         3.393900         0.107392         0.045771
 O         2.158876        -0.531452        -0.378423
 H         4.040320         1.293156         3.362199
 H         4.570587        -0.492153         3.034418
 H         5.447877         0.840260         2.267941
 H         1.541411        -1.029432         2.127135
 H         1.531063         0.677335         2.681676
 H        -0.381832        -0.841220        -0.359498
 H        -0.948461         0.390739         0.793007
 H        -0.349922         0.938057        -0.790885
 H         3.811603         2.277439         0.331341
 H         4.388827        -0.104925        -0.404236
