19
Iteration:  2117
 C         4.324372         0.648952         2.610374
 C         3.246192         0.692739         1.576120
 C         1.816812         0.391444         1.936410
 C         1.282829         0.373111         0.404248
 C        -0.144256         0.268005         0.083568
 O         1.906197         1.518781        -0.193375
 C         3.231621         1.377386         0.227366
 C         3.341712        -0.190951         0.309284
 O         2.099151        -0.764013        -0.099009
 H         4.539331         1.739527         2.978752
 H         4.096328         0.044386         3.437525
 H         5.320745         0.308479         2.193722
 H         1.694924        -0.594923         2.369574
 H         1.247221         1.160554         2.443814
 H        -0.288362         0.042404        -1.017380
 H        -0.664438        -0.381522         0.724438
 H        -0.558117         1.296080         0.249067
 H         3.980915         2.240342         0.140481
 H         4.271710        -0.688311        -0.047823
