19
Iteration:  1027charge 0 multiplicity 1
 C         4.406564         0.239061         2.621387
 C         3.373864         0.291591         1.443255
 C         1.904930        -0.215558         1.711130
 C         1.308191         0.342636         0.439291
 C        -0.223410         0.058212         0.031074
 O         1.682599         1.774283         0.595683
 C         3.060430         1.610152         0.622256
 C         3.429060         0.292696        -0.029729
 O         2.204701        -0.168133        -0.605780
 H         4.038574         0.886355         3.363366
 H         4.815485        -0.733052         2.849958
 H         5.307093         0.793610         2.384118
 H         2.007348        -1.275201         1.718090
 H         1.304961         0.224646         2.531790
 H        -0.914205         0.027237         0.911536
 H        -0.500979         0.914562        -0.616728
 H        -0.205851        -0.824209        -0.587108
 H         3.506628         2.552314         0.783303
 H         4.244328         0.310182        -0.668436
