19
Iteration:  3549
 C         4.443803         0.836438         2.593389
 C         3.112319         0.503430         1.661731
 C         1.651830         0.553764         1.812751
 C         1.326722         0.476793         0.320563
 C        -0.118201         0.186754         0.172512
 O         1.959434         1.534277        -0.339440
 C         3.290668         1.272019         0.266643
 C         3.335060        -0.285957         0.408188
 O         2.103527        -0.770794        -0.040217
 H         4.336626         1.898303         2.991767
 H         4.327323         0.174143         3.483871
 H         5.435607         0.624588         2.112064
 H         1.008294        -0.315716         2.130176
 H         1.255248         1.438492         2.349913
 H        -0.655993         0.205810        -0.773932
 H        -0.142861        -0.778612         0.470947
 H        -0.600931         0.885597         0.848809
 H         4.130363         1.952422        -0.045136
 H         4.312236        -0.848443         0.235540
