19
Iteration:  4270charge 0 multiplicity 1
 C         4.243419         0.782999         2.582274
 C         3.242422         0.606091         1.498913
 C         1.841528         0.568333         1.903036
 C         1.300583         0.440373         0.478062
 C        -0.126664         0.048630         0.071377
 O         1.952822         1.593551        -0.121123
 C         3.306756         1.266837         0.262179
 C         3.330184        -0.335503         0.280145
 O         2.020369        -0.686016        -0.114638
 H         4.227332         1.917527         2.752402
 H         4.003846         0.154663         3.502298
 H         5.291159         0.412060         2.260817
 H         1.735495        -0.205988         2.681599
 H         1.334795         1.541158         2.232927
 H        -0.133237        -0.146713        -1.081529
 H        -0.323869        -0.739026         0.730585
 H        -0.808234         0.924490         0.229701
 H         4.183044         1.984073         0.078099
 H         4.176293        -0.920360         0.037074
