19
Iteration:  1491
 C         4.353330         0.360338         2.574628
 C         3.262055         0.431430         1.586047
 C         1.804293         0.093041         1.862048
 C         1.293987         0.304475         0.437209
 C        -0.203639         0.171838         0.059042
 O         1.759164         1.739803         0.202529
 C         3.132764         1.534754         0.485846
 C         3.413182         0.144520         0.026634
 O         2.270820        -0.506125        -0.414574
 H         4.055617         0.936290         3.546190
 H         4.821284        -0.590351         2.778491
 H         5.155339         0.990409         2.214966
 H         1.805391        -0.947053         2.193128
 H         1.286381         0.684504         2.640604
 H        -0.663061        -0.358082         0.917434
 H        -0.565691         1.183656         0.091713
 H        -0.337652        -0.281769        -0.891986
 H         3.821773         2.433504         0.373482
 H         4.385899        -0.286171        -0.285842
