19
Iteration:   675
 C         4.498255        -0.024911         2.417204
 C         3.356354         0.342751         1.512684
 C         1.912963        -0.360518         1.624626
 C         1.218713         0.303371         0.428120
 C        -0.243782         0.116403         0.029820
 O         1.555612         1.714995         0.627761
 C         2.904532         1.686268         0.906944
 C         3.476599         0.611589        -0.011390
 O         2.377610        -0.068774        -0.682012
 H         4.404706         0.322326         3.446780
 H         4.777388        -1.087633         2.355148
 H         5.410675         0.554987         2.039326
 H         2.204496        -1.431105         1.493987
 H         1.603983        -0.198082         2.634871
 H        -0.424248        -0.556756        -0.837515
 H        -0.652976        -0.472714         0.844740
 H        -0.728401         1.075621        -0.163951
 H         3.380311         2.624501         1.233631
 H         4.519021         0.740004        -0.502570
