19
Iteration:  2267
 C         4.328591         0.745190         2.606276
 C         3.252002         0.714756         1.543625
 C         1.755809         0.576168         1.863575
 C         1.301613         0.348692         0.414539
 C        -0.160381         0.197007         0.076068
 O         1.989736         1.565847        -0.176739
 C         3.308010         1.287551         0.199259
 C         3.354735        -0.324421         0.312524
 O         2.014197        -0.787862        -0.012608
 H         4.250848         1.701088         3.190420
 H         4.084214        -0.082669         3.277870
 H         5.342764         0.632120         2.227140
 H         1.467526        -0.360852         2.367643
 H         1.330392         1.385655         2.452122
 H        -0.713102         0.596162         0.964651
 H        -0.424095         0.747145        -0.871973
 H        -0.508401        -0.837275         0.002196
 H         4.105661         2.028313        -0.204376
 H         4.237182        -0.823594        -0.002033
