19
Iteration:  2243
 C         4.336809         0.591401         2.626781
 C         3.196796         0.648397         1.606383
 C         1.735780         0.570237         1.913454
 C         1.272624         0.392765         0.460412
 C        -0.165768         0.294684         0.125001
 O         1.836986         1.462310        -0.325195
 C         3.281627         1.309960         0.101842
 C         3.398889        -0.183443         0.341200
 O         2.219570        -0.749802        -0.002052
 H         4.198636         1.358461         3.370236
 H         4.366443        -0.424701         3.165507
 H         5.275893         0.796452         2.137897
 H         1.261858        -0.207701         2.625121
 H         1.514859         1.602961         2.356436
 H        -0.730127         1.016984         0.804242
 H        -0.222849         0.475400        -1.070980
 H        -0.672186        -0.687805         0.374535
 H         4.014753         1.937471        -0.425386
 H         4.326871        -0.784161         0.357844
