19
Iteration:  1078
 C         4.470939         0.292388         2.494899
 C         3.296220         0.388150         1.555236
 C         1.852676        -0.247261         1.723645
 C         1.312847         0.324259         0.360393
 C        -0.228482         0.144929         0.041572
 O         1.600745         1.762745         0.483409
 C         3.051399         1.600857         0.693493
 C         3.462819         0.309736         0.056053
 O         2.291984        -0.247960        -0.557797
 H         4.452827         0.881660         3.471551
 H         4.625176        -0.840006         2.693629
 H         5.496405         0.490518         1.961732
 H         1.902954        -1.348362         1.699679
 H         1.308926         0.160510         2.566950
 H        -0.495423        -0.902838         0.090216
 H        -0.782758         0.640024         0.857751
 H        -0.465832         0.589490        -0.906877
 H         3.671250         2.464513         0.663033
 H         4.294726        -0.123720        -0.439512
