19
Iteration:  2440
 C         4.376410         0.859650         2.622025
 C         3.212900         0.644803         1.626314
 C         1.707523         0.558907         1.806290
 C         1.297834         0.352543         0.408933
 C        -0.084888         0.394451         0.133706
 O         1.857885         1.457538        -0.282245
 C         3.329808         1.283818         0.188534
 C         3.336222        -0.318214         0.394574
 O         2.100984        -0.893790         0.011172
 H         4.249275         1.746930         3.215497
 H         4.221364        -0.100126         3.205857
 H         5.290938         0.766671         2.029821
 H         1.449464        -0.344436         2.418491
 H         1.249663         1.459834         2.256495
 H        -0.442782        -0.635998        -0.130084
 H        -0.811857         0.770910         0.791674
 H        -0.043735         0.988410        -0.813035
 H         4.063403         1.896262        -0.231591
 H         4.240391        -0.914512        -0.002532
