19
Iteration:  2084
 C         4.352230         0.567555         2.629242
 C         3.263988         0.521539         1.588541
 C         1.739640         0.582372         1.867231
 C         1.282013         0.438476         0.441137
 C        -0.132649         0.048598         0.118820
 O         1.940052         1.610677        -0.097749
 C         3.294590         1.327121         0.177669
 C         3.316212        -0.182487         0.287678
 O         2.064103        -0.639400        -0.147685
 H         4.065726         1.483238         3.282181
 H         4.399698        -0.188431         3.364564
 H         5.377945         0.753488         2.222600
 H         1.385734        -0.135945         2.605792
 H         1.377076         1.558329         2.154645
 H        -0.059441        -0.875866        -0.508443
 H        -0.768309        -0.120991         0.942273
 H        -0.511988         0.894389        -0.504011
 H         4.028638         2.094039        -0.133599
 H         4.164609        -0.663407        -0.257569
