19
Iteration:  2905
 C         4.390266         0.832636         2.694385
 C         3.292016         0.533558         1.574461
 C         1.779356         0.627012         1.839469
 C         1.254506         0.374098         0.444251
 C        -0.254645         0.158151         0.010926
 O         1.987312         1.534356        -0.218451
 C         3.349252         1.199364         0.223581
 C         3.315149        -0.241705         0.280288
 O         2.031112        -0.714082         0.033636
 H         4.029359         1.775572         3.232520
 H         4.550981        -0.042616         3.361343
 H         5.313123         1.014030         2.096835
 H         1.315174        -0.130655         2.464462
 H         1.399342         1.634843         1.981959
 H        -0.448521        -0.916245         0.171743
 H        -1.042002         0.626910         0.592165
 H        -0.383663         0.364791        -1.071523
 H         4.177488         1.600996        -0.242438
 H         4.204234        -0.876033         0.131023
