19
Iteration:  4073
 C         4.295786         0.914881         2.517538
 C         3.174376         0.529704         1.578152
 C         1.714786         0.383090         1.844823
 C         1.339638         0.337812         0.369846
 C        -0.159197         0.307838         0.084112
 O         1.940551         1.580312        -0.132901
 C         3.282815         1.284676         0.287099
 C         3.429194        -0.275594         0.326388
 O         2.104175        -0.788465        -0.034263
 H         4.206060         1.965406         2.882899
 H         4.293852         0.292943         3.420622
 H         5.178335         0.796101         1.866386
 H         1.395123        -0.456067         2.425271
 H         1.214959         1.270952         2.255431
 H        -0.293160         0.010526        -0.931789
 H        -0.565033        -0.475638         0.815512
 H        -0.565016         1.255602         0.456304
 H         4.159554         1.814383        -0.007212
 H         4.251278        -0.962969        -0.037672
