19
Iteration:  4571
 C         4.342279         0.804125         2.552588
 C         3.220807         0.495140         1.585160
 C         1.717810         0.476980         1.903223
 C         1.309198         0.379470         0.401701
 C        -0.138504         0.199023         0.102194
 O         1.956801         1.560766        -0.152818
 C         3.231568         1.268209         0.195955
 C         3.413190        -0.226242         0.262934
 O         2.088734        -0.693354        -0.014981
 H         3.831966         1.258324         3.454048
 H         4.942144        -0.081807         2.949455
 H         5.091481         1.554834         2.202512
 H         1.420060        -0.354936         2.542011
 H         1.266040         1.384620         2.304246
 H        -0.354310         0.417399        -1.002457
 H        -0.531535        -0.761934         0.390765
 H        -0.835030         0.816232         0.665163
 H         4.086712         1.925458         0.007151
 H         4.119789        -0.825192        -0.306954
