19
Iteration:  4979charge 0 multiplicity 1
 C         4.367674         0.669372         2.603555
 C         3.204409         0.758427         1.610828
 C         1.774970         0.535614         1.948515
 C         1.311071         0.318659         0.475171
 C        -0.217301         0.353878         0.028633
 O         1.850288         1.422773        -0.270448
 C         3.192852         1.280462         0.094540
 C         3.437856        -0.109565         0.349128
 O         2.204856        -0.878277         0.028558
 H         4.169989         1.449425         3.342713
 H         4.408255        -0.329425         3.037596
 H         5.359710         0.916966         2.189460
 H         1.543727        -0.332517         2.545491
 H         1.245121         1.324212         2.466856
 H        -0.363682         0.392028        -1.079864
 H        -0.887306        -0.502397         0.320575
 H        -0.537231         1.329458         0.484996
 H         3.828665         2.039019        -0.291796
 H         4.413256        -0.715297         0.095527
