19
Iteration:  3264charge 0 multiplicity 1
 C         4.248345         0.857106         2.632216
 C         3.299083         0.673193         1.547025
 C         1.781878         0.525281         1.900928
 C         1.232248         0.234626         0.427219
 C        -0.202953         0.350875        -0.029952
 O         1.939723         1.491083        -0.163111
 C         3.352475         1.239540         0.153065
 C         3.345504        -0.257944         0.329219
 O         2.121517        -0.822593         0.028733
 H         4.165811         1.786198         3.262172
 H         4.343095        -0.054142         3.182904
 H         5.246133         0.980762         2.218818
 H         1.644739        -0.379010         2.584309
 H         1.409949         1.409920         2.543254
 H        -0.415752         0.181929        -1.080567
 H        -0.764680        -0.430520         0.597269
 H        -0.453984         1.370570         0.228321
 H         3.899071         1.838264        -0.510740
 H         4.187519        -0.906104         0.174392
