19
Iteration:  1016
 C         4.395845         0.212576         2.577984
 C         3.326744         0.365074         1.547789
 C         1.973471        -0.237758         1.682899
 C         1.277328         0.283550         0.443623
 C        -0.123960         0.113783         0.028876
 O         1.659374         1.711049         0.570245
 C         3.065603         1.668225         0.604519
 C         3.385956         0.396485        -0.030046
 O         2.189420        -0.190296        -0.574197
 H         4.062532         0.457053         3.564886
 H         4.548815        -0.850882         2.728825
 H         5.302368         0.707809         2.286623
 H         1.874575        -1.300607         1.719348
 H         1.479249         0.163867         2.596260
 H        -0.898870         0.351943         0.792442
 H        -0.285888         0.715092        -0.884096
 H        -0.269380        -0.932848        -0.196706
 H         3.738502         2.482091         0.471929
 H         4.169854         0.256107        -0.709484
