19
Iteration:  2152charge 0 multiplicity 1
 C         4.369445         0.817991         2.633488
 C         3.287477         0.524105         1.571426
 C         1.775324         0.383289         1.901192
 C         1.288071         0.349694         0.447851
 C        -0.247987         0.401785         0.023961
 O         1.894429         1.539782        -0.123789
 C         3.217723         1.249905         0.215255
 C         3.410761        -0.259232         0.283335
 O         2.151978        -0.792299        -0.112699
 H         4.240304         1.905365         2.824269
 H         4.322302         0.289926         3.580450
 H         5.396174         0.734206         2.169732
 H         1.408104        -0.488395         2.513637
 H         1.380234         1.312512         2.424229
 H        -0.515880         0.962750        -0.918912
 H        -0.695325        -0.627145        -0.168687
 H        -0.761401         0.814960         0.980402
 H         3.906047         2.172492         0.162568
 H         4.289686        -0.684024        -0.138354
