19
Iteration:   549charge 0 multiplicity 1
 C         4.565570         0.103057         2.384716
 C         3.301078         0.186365         1.486159
 C         1.890726        -0.553221         1.509432
 C         1.285492         0.357913         0.379264
 C        -0.142941         0.082651         0.075684
 O         1.504556         1.731160         0.695814
 C         2.958857         1.611381         0.972223
 C         3.410376         0.617308         0.014141
 O         2.346336         0.123786        -0.708198
 H         4.283626         0.469610         3.386079
 H         4.943946        -0.875376         2.654920
 H         5.337992         0.718499         2.041374
 H         2.017383        -1.589068         1.250606
 H         1.257343        -0.633943         2.424910
 H        -0.655139         0.937225         0.544932
 H        -0.555886        -0.059969        -0.932195
 H        -0.503634        -0.821032         0.648529
 H         3.433298         2.576199         1.219013
 H         4.508805         0.747211        -0.328864
