19
Iteration:  4744
 C         4.302529         0.747431         2.706777
 C         3.373065         0.635470         1.512867
 C         1.804547         0.470434         1.898354
 C         1.222150         0.298099         0.543549
 C        -0.158809         0.300747         0.034123
 O         1.824512         1.489201        -0.233514
 C         3.263523         1.332672         0.117128
 C         3.416163        -0.158014         0.250267
 O         2.113416        -0.797058         0.013807
 H         4.023590         1.404634         3.503875
 H         4.499740        -0.242962         3.086698
 H         5.241542         1.105200         2.352330
 H         1.576339        -0.478504         2.464228
 H         1.330149         1.281953         2.527657
 H        -0.354654         0.673665        -0.999847
 H        -0.397166        -0.708448        -0.047702
 H        -0.888994         0.890457         0.587108
 H         3.935635         2.160487        -0.121563
 H         4.268013        -0.713651        -0.029682
