19
Iteration:   968charge 0 multiplicity 1
 C         4.572335         0.066413         2.403739
 C         3.242318         0.366391         1.586241
 C         1.788172        -0.137238         1.767426
 C         1.263936         0.334213         0.325233
 C        -0.178657         0.005127         0.017341
 O         1.614165         1.760934         0.503041
 C         2.987044         1.642791         0.798001
 C         3.499478         0.443017         0.031146
 O         2.323961        -0.149136        -0.537309
 H         4.520980         0.148265         3.424899
 H         4.841213        -1.012971         2.333230
 H         5.342046         0.738675         1.932399
 H         1.853225        -1.238004         1.918952
 H         0.980858         0.205971         2.373979
 H        -0.710978         0.910586        -0.162833
 H        -0.379385        -0.615813        -0.837227
 H        -0.628533        -0.332526         0.966715
 H         3.570962         2.575726         0.605238
 H         4.419108         0.192343        -0.579750
