19
Iteration:  3496
 C         4.282410         0.621507         2.727219
 C         3.269890         0.690747         1.496835
 C         1.876276         0.646690         1.856636
 C         1.338865         0.409930         0.451737
 C        -0.049083         0.248614        -0.069794
 O         1.794758         1.469195        -0.216457
 C         3.160815         1.318225         0.091972
 C         3.382387        -0.267628         0.273198
 O         2.081822        -0.819759         0.227590
 H         3.970835         1.480489         3.354928
 H         4.261701        -0.296503         3.266916
 H         5.280053         0.991464         2.496651
 H         1.572442        -0.171008         2.566222
 H         1.646909         1.681686         2.140617
 H        -0.030791         0.311928        -1.167443
 H        -0.395779        -0.679181         0.261969
 H        -0.703047         0.992524         0.346155
 H         3.873649         1.914799        -0.493009
 H         4.274543        -0.666970        -0.310687
