19
Iteration:  4880
 C         4.315936         0.822161         2.598687
 C         3.273992         0.588087         1.552171
 C         1.776507         0.352377         1.901584
 C         1.304043         0.328533         0.407950
 C        -0.203915         0.451220         0.064139
 O         1.831070         1.429164        -0.185188
 C         3.190086         1.270991         0.148691
 C         3.482106        -0.150039         0.306455
 O         2.180970        -0.796379         0.043560
 H         4.390629         1.863649         2.933708
 H         4.110988         0.180035         3.461272
 H         5.299206         0.553421         2.156469
 H         1.536226        -0.589127         2.371712
 H         1.250692         1.101765         2.436003
 H        -0.177053         0.242306        -0.970631
 H        -0.937266        -0.347900         0.504900
 H        -0.510503         1.450616         0.371270
 H         3.829300         2.128337        -0.091512
 H         4.271457        -0.702904        -0.095756
