19
Iteration:  4096charge 0 multiplicity 1
 C         4.440076         0.844899         2.598094
 C         3.160460         0.651184         1.670603
 C         1.661086         0.432039         1.947209
 C         1.308963         0.330645         0.408057
 C        -0.201129         0.322938         0.141969
 O         1.899566         1.395662        -0.294811
 C         3.305367         1.286607         0.209802
 C         3.336460        -0.219286         0.442671
 O         2.189114        -0.734709        -0.246562
 H         4.517009         1.852309         3.002581
 H         4.231911         0.244845         3.468974
 H         5.312845         0.540599         2.005992
 H         1.466733        -0.437574         2.519750
 H         1.051574         1.209043         2.387014
 H        -0.414587         0.383985        -0.918434
 H        -0.626670        -0.562385         0.640710
 H        -0.519877         1.150358         0.801329
 H         4.029919         2.018006        -0.025475
 H         4.317244        -0.795629         0.312336
