19
Iteration:  4510
 C         4.320581         0.757915         2.566192
 C         3.217222         0.573652         1.575485
 C         1.746441         0.512189         1.903466
 C         1.317395         0.414875         0.437027
 C        -0.141458         0.255017         0.151094
 O         1.898119         1.527296        -0.204375
 C         3.233897         1.329756         0.262910
 C         3.363649        -0.248413         0.258659
 O         2.159323        -0.808953        -0.084724
 H         4.111555         1.676707         3.103123
 H         4.367314        -0.024117         3.318062
 H         5.309610         0.811719         2.094479
 H         1.464136        -0.499377         2.357142
 H         1.137161         1.293262         2.463461
 H        -0.220351         0.419670        -0.961004
 H        -0.211008        -0.830329         0.345325
 H        -0.804514         1.005374         0.684036
 H         3.911317         2.197306        -0.020226
 H         4.243307        -0.713788        -0.053299
