19
Iteration:  3278charge 0 multiplicity 1
 C         4.323856         0.821941         2.689037
 C         3.272442         0.691429         1.543097
 C         1.801334         0.541141         1.929109
 C         1.349967         0.366059         0.516785
 C        -0.144775         0.348865        -0.029681
 O         1.864663         1.437609        -0.181933
 C         3.187422         1.197860         0.043327
 C         3.422466        -0.269240         0.326105
 O         2.076934        -0.842064         0.016492
 H         3.836841         1.522788         3.305193
 H         4.303433        -0.035247         3.309161
 H         5.298915         1.136605         2.382668
 H         1.702205        -0.303814         2.584692
 H         1.331569         1.467832         2.202503
 H         0.067300         0.434208        -1.116160
 H        -0.862066        -0.422254         0.162295
 H        -0.699692         1.309621         0.315789
 H         4.036540         1.923902        -0.224407
 H         4.285497        -0.976094         0.079634
