19
Iteration:  4420
 C         4.363820         0.788205         2.643002
 C         3.288356         0.668519         1.574506
 C         1.784383         0.377655         1.945151
 C         1.288826         0.340658         0.428491
 C        -0.216769         0.367507         0.041698
 O         1.851751         1.467730        -0.169329
 C         3.179867         1.338267         0.188334
 C         3.437084        -0.167801         0.244701
 O         2.166973        -0.834275        -0.048845
 H         4.483197         1.657700         3.292250
 H         4.089785        -0.105544         3.207004
 H         5.334700         0.564415         2.188953
 H         1.635550        -0.569676         2.515400
 H         1.344316         1.363444         2.340317
 H        -0.499522        -0.054797        -1.028999
 H        -0.738558        -0.346345         0.731803
 H        -0.629700         1.419534         0.194948
 H         3.705409         2.136956        -0.271359
 H         4.389527        -0.788140         0.094904
