19
Iteration:  1490charge 0 multiplicity 1
 C         4.364021         0.356445         2.583810
 C         3.264876         0.428574         1.580378
 C         1.793044         0.094515         1.859015
 C         1.298155         0.304115         0.433099
 C        -0.199784         0.163437         0.058526
 O         1.755168         1.742977         0.199104
 C         3.140242         1.541513         0.490254
 C         3.414980         0.136381         0.021997
 O         2.269413        -0.499116        -0.408061
 H         4.061337         0.949618         3.548487
 H         4.823013        -0.612743         2.773981
 H         5.127337         1.003590         2.188511
 H         1.780211        -0.941955         2.193372
 H         1.286223         0.690551         2.631618
 H        -0.687871        -0.339160         0.919142
 H        -0.602576         1.201151         0.099001
 H        -0.367547        -0.327129        -0.871463
 H         3.822214         2.432290         0.395417
 H         4.375592        -0.269207        -0.296769
