19
Iteration:  2268charge 0 multiplicity 1
 C         4.336680         0.749553         2.615143
 C         3.250739         0.708253         1.552703
 C         1.750890         0.570023         1.865789
 C         1.297334         0.345952         0.418228
 C        -0.155124         0.188953         0.072514
 O         1.988239         1.572002        -0.184566
 C         3.317744         1.296119         0.200585
 C         3.344628        -0.328288         0.297847
 O         2.008117        -0.788080        -0.014248
 H         4.242197         1.735201         3.173221
 H         4.090037        -0.039819         3.286446
 H         5.362582         0.635901         2.233112
 H         1.445818        -0.324317         2.380811
 H         1.371025         1.356983         2.465162
 H        -0.709288         0.609893         0.933311
 H        -0.405922         0.767660        -0.798099
 H        -0.481000        -0.841058        -0.008150
 H         4.123920         2.010946        -0.198677
 H         4.223950        -0.848223         0.004041
