19
Iteration:  3799charge 0 multiplicity 1
 C         4.335186         0.710707         2.690851
 C         3.263340         0.601683         1.574488
 C         1.757659         0.573247         1.926286
 C         1.273510         0.404774         0.486505
 C        -0.197116         0.169891         0.044401
 O         1.833163         1.453302        -0.310035
 C         3.278587         1.328006         0.173646
 C         3.436052        -0.207979         0.318535
 O         2.162039        -0.703359        -0.017766
 H         4.134932         1.386424         3.550799
 H         4.355616        -0.306310         3.092214
 H         5.332380         0.960413         2.320053
 H         1.523755        -0.251711         2.631491
 H         1.468064         1.494304         2.414064
 H        -0.158423        -0.094674        -1.110502
 H        -0.770759        -0.561095         0.695252
 H        -0.827095         1.127814         0.064615
 H         3.937833         2.075065        -0.270745
 H         4.233794        -0.820679        -0.155354
