19
Iteration:  3124
 C         4.302201         0.854541         2.574731
 C         3.215857         0.511492         1.598805
 C         1.676513         0.527811         1.835015
 C         1.337130         0.434586         0.365941
 C        -0.114807         0.234799         0.130279
 O         1.984938         1.582245        -0.161941
 C         3.305246         1.185694         0.212304
 C         3.368705        -0.331336         0.381210
 O         2.068437        -0.747701        -0.089666
 H         4.082239         1.650621         3.332380
 H         4.811069        -0.066892         2.971159
 H         5.078823         1.313894         1.929568
 H         1.333219        -0.263171         2.522846
 H         1.465069         1.520073         2.240412
 H        -0.575399        -0.678907         0.576473
 H        -0.853112         1.023902         0.529677
 H        -0.411961         0.139632        -0.928470
 H         3.910118         2.106373         0.043598
 H         4.138364        -1.139641         0.192163
