19
Iteration:  4221charge 0 multiplicity 1
 C         4.349367         0.911879         2.608380
 C         3.231073         0.676271         1.561914
 C         1.782565         0.387120         1.899535
 C         1.278465         0.234189         0.454681
 C        -0.199206         0.403513         0.058164
 O         1.948730         1.468159        -0.210384
 C         3.184452         1.316681         0.267391
 C         3.421613        -0.256118         0.336361
 O         2.102476        -0.814786        -0.123383
 H         4.194338         1.775406         3.193658
 H         4.342764        -0.029045         3.102499
 H         5.329396         0.954444         2.224178
 H         1.756762        -0.632597         2.379549
 H         1.394196         1.070541         2.668424
 H        -0.321901         0.127484        -0.942252
 H        -0.843736        -0.131083         0.840103
 H        -0.428570         1.461233         0.086036
 H         3.917625         1.952300        -0.098947
 H         4.178622        -1.116894         0.210390
