19
Iteration:  2009charge 0 multiplicity 1
 C         4.295956         0.726724         2.563688
 C         3.256285         0.536590         1.555745
 C         1.795940         0.322660         1.927079
 C         1.270903         0.328554         0.474382
 C        -0.219518         0.328046         0.030671
 O         1.898878         1.531766        -0.039422
 C         3.268993         1.363962         0.259289
 C         3.402169        -0.172349         0.273265
 O         2.139009        -0.682282        -0.203424
 H         4.037579         1.456228         3.270249
 H         4.481163        -0.183259         3.023106
 H         5.231293         1.055716         2.099813
 H         1.585870        -0.577700         2.529531
 H         1.369623         1.139400         2.529500
 H        -0.825105         0.059837         0.898991
 H        -0.357826         1.305352        -0.261867
 H        -0.414960        -0.443955        -0.676342
 H         4.057575         2.056411         0.135914
 H         4.298794        -0.697084        -0.109361
