19
Iteration:  2360charge 0 multiplicity 1
 C         4.306555         0.703816         2.602191
 C         3.222973         0.635830         1.571050
 C         1.843551         0.587384         1.855766
 C         1.218638         0.436927         0.478996
 C        -0.256735         0.302673         0.087729
 O         1.980676         1.448437        -0.282971
 C         3.249982         1.230990         0.171383
 C         3.458131        -0.210745         0.372940
 O         2.120402        -0.799111        -0.009355
 H         4.057679         1.581191         3.226561
 H         4.404671        -0.224066         3.284932
 H         5.291251         0.967438         2.163704
 H         1.383980        -0.212055         2.488791
 H         1.558904         1.545550         2.375146
 H        -0.843887        -0.343419         0.715964
 H        -0.872926         1.244560        -0.085700
 H        -0.166782        -0.363294        -0.756554
 H         3.833160         2.148137        -0.097846
 H         4.144176        -1.006966         0.243405
