19
Iteration:  4249charge 0 multiplicity 1
 C         4.285907         0.901817         2.670028
 C         3.314764         0.386324         1.569143
 C         1.760635         0.443859         1.938386
 C         1.274391         0.404227         0.516594
 C        -0.134887         0.200967         0.017893
 O         1.943939         1.606269        -0.127032
 C         3.225705         1.227328         0.106802
 C         3.395313        -0.213869         0.173111
 O         2.070406        -0.704462         0.000215
 H         4.040842         2.000839         2.879335
 H         4.164612         0.307919         3.643250
 H         5.382987         0.747106         2.387788
 H         1.384505        -0.390831         2.518101
 H         1.609410         1.416098         2.432263
 H        -0.106727        -0.256322        -1.035912
 H        -0.603552        -0.508405         0.660443
 H        -0.748510         1.124500        -0.067872
 H         4.004896         1.791650        -0.472876
 H         4.100316        -0.896750        -0.248538
