19
Iteration:  3840charge 0 multiplicity 1
 C         4.227680         0.626800         2.652420
 C         3.370916         0.735731         1.449153
 C         1.847922         0.633709         1.890888
 C         1.229782         0.355117         0.452799
 C        -0.187780         0.037337         0.010994
 O         1.892911         1.645207        -0.157548
 C         3.242101         1.370264         0.124038
 C         3.437117        -0.338104         0.381719
 O         2.083005        -0.734955         0.026230
 H         3.899771         1.241800         3.525546
 H         4.408104        -0.397872         3.089968
 H         5.251632         1.016959         2.482838
 H         1.539754        -0.178021         2.605251
 H         1.412209         1.550836         2.304110
 H        -0.086441        -0.358282        -1.070355
 H        -0.780558        -0.602157         0.631817
 H        -0.718376         1.042815        -0.009768
 H         4.016576         1.870070        -0.481521
 H         4.349054        -0.820935         0.046377
