19
Iteration:  2043
 C         4.366858         0.618626         2.659931
 C         3.293182         0.575786         1.607715
 C         1.749168         0.370606         1.864156
 C         1.267630         0.348952         0.420885
 C        -0.163418         0.303938         0.084513
 O         1.848086         1.524610        -0.169868
 C         3.263771         1.365901         0.144090
 C         3.362326        -0.074458         0.322856
 O         2.128902        -0.719469        -0.067747
 H         4.260511         1.125927         3.534524
 H         4.634513        -0.398537         2.820158
 H         5.291375         1.031901         2.212565
 H         1.504221        -0.650950         2.250522
 H         1.407390         1.284740         2.395647
 H        -0.513091        -0.597288         0.547362
 H        -0.796064         1.042786         0.478011
 H        -0.353090         0.441245        -0.979866
 H         3.923144         2.244470        -0.004867
 H         4.252066        -0.545139        -0.136206
