19
Iteration:  2350
 C         4.365267         0.774497         2.617696
 C         3.260051         0.626657         1.586776
 C         1.775276         0.515647         1.945296
 C         1.306892         0.401352         0.384475
 C        -0.263883         0.366894         0.085300
 O         1.900735         1.394680        -0.307798
 C         3.250598         1.303877         0.202106
 C         3.373001        -0.287649         0.354454
 O         2.146112        -0.763514        -0.011034
 H         4.247002         1.657636         3.231214
 H         4.340889        -0.088689         3.392959
 H         5.399554         0.772003         2.247468
 H         1.652893        -0.519526         2.354578
 H         1.255897         1.392381         2.407968
 H        -0.744871        -0.024283         0.968384
 H        -0.651639         1.346978        -0.342973
 H        -0.341810        -0.264497        -0.788952
 H         3.969422         2.055936        -0.238026
 H         4.236466        -0.874203         0.316987
