19
Iteration:  1246charge 0 multiplicity 1
 C         4.381620         0.330841         2.462784
 C         3.274138         0.364328         1.510879
 C         1.822740        -0.061109         1.782502
 C         1.247032         0.387206         0.412968
 C        -0.142934         0.039837         0.005241
 O         1.711180         1.830432         0.450439
 C         3.154282         1.534688         0.654559
 C         3.435558         0.201354         0.005936
 O         2.215794        -0.335451        -0.459070
 H         4.198553         1.089787         3.239030
 H         4.670938        -0.592513         3.051786
 H         5.266829         0.603028         1.814581
 H         1.631252        -1.122058         1.865183
 H         1.433322         0.493334         2.629513
 H        -0.646480        -0.217053         0.930517
 H        -0.603669         0.935838        -0.341129
 H        -0.077864        -0.804953        -0.717287
 H         3.859345         2.326049         0.696232
 H         4.280376        -0.195682        -0.476581
