19
Iteration:  4797
 C         4.373679         0.662584         2.620340
 C         3.246931         0.622714         1.620162
 C         1.715110         0.581954         1.906718
 C         1.288293         0.368096         0.393471
 C        -0.187843         0.033845         0.137491
 O         1.972611         1.568610        -0.259422
 C         3.255984         1.292041         0.237018
 C         3.362993        -0.210585         0.339762
 O         2.108232        -0.619011        -0.096392
 H         4.216147         1.476170         3.330346
 H         4.585879        -0.267802         3.140891
 H         5.267902         0.942936         2.070185
 H         1.182423        -0.253842         2.401808
 H         1.285633         1.587130         2.097896
 H        -0.567173        -0.082422        -0.872978
 H        -0.492664        -0.802295         0.716028
 H        -0.711182         0.921466         0.498216
 H         4.021372         1.882361        -0.252631
 H         4.179458        -0.826471         0.067177
