19
Iteration:  3668charge 0 multiplicity 1
 C         4.399522         0.659971         2.642937
 C         3.130486         0.667957         1.706445
 C         1.626931         0.655117         1.859696
 C         1.336698         0.376000         0.295603
 C        -0.204525         0.166548         0.210349
 O         1.977882         1.447258        -0.331342
 C         3.294573         1.347985         0.214553
 C         3.412729        -0.186956         0.374225
 O         2.132122        -0.762414        -0.077636
 H         4.589458         1.499804         3.373678
 H         4.613774        -0.304732         3.127035
 H         5.324936         0.829673         2.049626
 H         1.208496        -0.292529         2.274517
 H         1.087840         1.552950         2.175579
 H        -0.676506        -0.074622        -0.836061
 H        -0.524389        -0.729555         0.693555
 H        -0.699430         1.130365         0.550391
 H         4.113916         2.057373        -0.024000
 H         4.166727        -0.892436         0.074477
