19
Iteration:  2876
 C         4.255758         0.718566         2.579530
 C         3.249063         0.689604         1.529881
 C         1.790114         0.645894         1.947968
 C         1.307207         0.445285         0.478709
 C        -0.065837         0.251863         0.066019
 O         1.871398         1.494420        -0.280178
 C         3.266114         1.250292         0.137970
 C         3.330271        -0.287575         0.365838
 O         2.116462        -0.823549         0.021969
 H         4.433826         1.642369         3.090253
 H         4.030131        -0.007818         3.406780
 H         5.244456         0.357065         2.295906
 H         1.489761        -0.272918         2.461353
 H         1.210804         1.526120         2.224717
 H        -0.044122        -0.804796        -0.145758
 H        -0.928575         0.513776         0.748005
 H        -0.280110         0.753386        -0.832790
 H         4.122267         1.783695        -0.281198
 H         4.241295        -0.818180         0.456396
