19
Iteration:  2855
 C         4.382228         0.704158         2.692190
 C         3.236605         0.681725         1.590287
 C         1.716935         0.607014         1.905721
 C         1.281689         0.337593         0.379381
 C        -0.244068         0.294396         0.055938
 O         1.948340         1.410658        -0.354744
 C         3.249875         1.290517         0.113638
 C         3.416689        -0.242296         0.370467
 O         2.145118        -0.768012         0.097910
 H         4.666992         1.683539         3.026979
 H         4.114805         0.100833         3.603013
 H         5.242540         0.154082         2.281676
 H         1.461834        -0.344621         2.412747
 H         1.287992         1.566525         2.313770
 H        -0.631467        -0.673764        -0.251064
 H        -0.851650         0.604149         0.982416
 H        -0.552191         1.027633        -0.658375
 H         3.870170         2.098090        -0.327181
 H         4.339583        -0.609306        -0.002483
