19
Iteration:  1720
 C         4.403855         0.449922         2.664920
 C         3.289974         0.526930         1.626678
 C         1.816091         0.126925         1.948748
 C         1.329123         0.297845         0.448024
 C        -0.132345         0.294932         0.042271
 O         1.744644         1.648948         0.037721
 C         3.076903         1.476781         0.310438
 C         3.403684         0.035316         0.066384
 O         2.205828        -0.572896        -0.274702
 H         4.514911         1.351897         3.416499
 H         4.367191        -0.487385         3.233800
 H         5.400701         0.533058         2.304057
 H         1.533426        -0.814923         2.401418
 H         1.335382         0.953709         2.484105
 H        -0.880033         0.252416         0.908535
 H        -0.345772         1.043458        -0.703871
 H        -0.473561        -0.689530        -0.433464
 H         3.717177         2.367912        -0.027387
 H         4.293248        -0.248554        -0.515436
