19
Iteration:  4443
 C         4.301899         0.631283         2.654747
 C         3.269494         0.581175         1.553658
 C         1.848432         0.495409         1.923962
 C         1.325772         0.385603         0.527426
 C        -0.142792         0.227207         0.040300
 O         1.782306         1.509170        -0.222253
 C         3.165648         1.371939         0.183816
 C         3.391177        -0.160619         0.230553
 O         2.176246        -0.702873         0.009931
 H         4.449598         1.707705         2.784828
 H         3.962584         0.199360         3.593221
 H         5.286128         0.308473         2.326524
 H         1.774130        -0.546213         2.375235
 H         1.472457         1.460746         2.484470
 H        -0.071128        -0.344406        -1.042890
 H        -0.694567        -0.505518         0.645829
 H        -0.568948         1.303549        -0.088324
 H         3.888845         1.985860        -0.252810
 H         4.164844        -0.878593        -0.232629
