19
Iteration:  2806
 C         4.293275         0.928431         2.559411
 C         3.212117         0.549508         1.585324
 C         1.702077         0.553941         1.958271
 C         1.287038         0.444476         0.496910
 C        -0.058691         0.230603         0.038251
 O         1.962449         1.556946        -0.240534
 C         3.359403         1.094228         0.157300
 C         3.368502        -0.374395         0.282748
 O         2.026846        -0.707263         0.013639
 H         3.914488         1.923554         2.969344
 H         4.089768         0.254794         3.403275
 H         5.390371         0.840171         2.359901
 H         1.456843        -0.311607         2.556847
 H         1.489936         1.521895         2.381529
 H        -0.127208        -0.805885        -0.337134
 H        -0.758106         0.351177         0.795498
 H        -0.493485         0.944436        -0.695780
 H         4.166354         1.751266        -0.268844
 H         3.998251        -1.213898         0.092077
