19
Iteration:    10charge 0 multiplicity 1
 C         4.666341        -0.191308         2.158236
 C         3.339096         0.194921         1.435986
 C         2.088265        -0.707543         1.231331
 C         1.308431         0.281602         0.387839
 C        -0.087258        -0.025769        -0.067288
 O         1.380899         1.536765         1.066678
 C         2.784934         1.622725         1.333235
 C         3.367369         1.008164         0.033948
 O         2.262769         0.571525        -0.721804
 H         4.636948        -0.331899         3.266767
 H         5.042419        -1.006651         1.675228
 H         5.482823         0.560564         1.926487
 H         2.353469        -1.518531         0.594231
 H         1.616286        -1.201528         2.110541
 H        -0.566324        -0.505134         0.866642
 H        -0.601733         0.937079        -0.299184
 H        -0.030080        -0.833362        -0.899585
 H         3.056979         2.329000         2.143574
 H         4.006649         1.671644        -0.472160
