19
Iteration:  3371
 C         4.285849         0.729368         2.652175
 C         3.340273         0.639568         1.543656
 C         1.766560         0.547898         1.873229
 C         1.236486         0.361151         0.472931
 C        -0.233458         0.255738        -0.012413
 O         1.901270         1.521106        -0.255631
 C         3.263189         1.264941         0.164382
 C         3.432634        -0.236338         0.294887
 O         2.155517        -0.780868         0.117898
 H         4.277162         1.802793         3.011735
 H         4.004619         0.175648         3.599674
 H         5.268213         0.387035         2.272813
 H         1.548858        -0.300553         2.545175
 H         1.342552         1.530254         2.189684
 H        -0.203574         0.376670        -1.072825
 H        -0.801853        -0.593501         0.422429
 H        -0.719403         1.102397         0.409504
 H         4.007473         1.870693        -0.373645
 H         4.192020        -0.973324        -0.098234
