19
Iteration:   129charge 0 multiplicity 1
 C         4.594560        -0.039455         2.137609
 C         3.265216         0.172489         1.465147
 C         2.036616        -0.694688         1.354531
 C         1.382355         0.306032         0.277483
 C        -0.083004         0.049935         0.066054
 O         1.372999         1.611541         0.897896
 C         2.759878         1.537173         1.279530
 C         3.453089         0.874741         0.112895
 O         2.349129         0.448390        -0.732783
 H         4.541169        -0.360826         3.271021
 H         5.047127        -0.925209         1.666591
 H         5.326210         0.880207         2.040912
 H         2.091275        -1.706762         0.984275
 H         1.390991        -0.645988         2.322406
 H        -0.704831         0.981106         0.277448
 H        -0.328444        -0.288728        -0.978847
 H        -0.354779        -0.773954         0.801457
 H         3.091743         2.406653         1.769959
 H         4.348270         1.023051        -0.533717
