19
Iteration:  3009charge 0 multiplicity 1
 C         4.268899         0.746757         2.590944
 C         3.236629         0.633053         1.562407
 C         1.740451         0.594802         1.851215
 C         1.265848         0.414959         0.370758
 C        -0.161100         0.097015         0.084391
 O         2.011299         1.658126        -0.139141
 C         3.322100         1.179506         0.233158
 C         3.354587        -0.257702         0.271804
 O         2.071446        -0.728391        -0.003850
 H         4.369177         1.760478         2.899642
 H         4.121669         0.031001         3.408996
 H         5.183358         0.505460         2.046347
 H         1.536773        -0.199104         2.607988
 H         1.279758         1.495186         2.325321
 H        -0.650801        -0.134499         1.048910
 H        -0.580295         0.866120        -0.511778
 H        -0.092410        -0.855932        -0.512473
 H         4.072154         1.862367        -0.140722
 H         4.028696        -1.126588         0.105554
