19
Iteration:  4640charge 0 multiplicity 1
 C         4.262454         0.592969         2.623707
 C         3.309183         0.706871         1.522695
 C         1.913738         0.462209         1.953263
 C         1.260480         0.309390         0.442921
 C        -0.159648         0.268804        -0.000628
 O         1.811881         1.518952        -0.140357
 C         3.146907         1.352707         0.123589
 C         3.416573        -0.137210         0.255925
 O         2.170068        -0.780847         0.032571
 H         4.297261         1.630034         3.009001
 H         3.963744        -0.164608         3.385776
 H         5.312235         0.328610         2.346972
 H         1.791633        -0.292931         2.697130
 H         1.583074         1.393293         2.426486
 H        -0.095385        -0.157044        -1.011459
 H        -0.742571        -0.313448         0.734934
 H        -0.688295         1.235151         0.028347
 H         3.630464         2.230261        -0.186292
 H         4.358880        -0.398859        -0.197103
