19
Iteration:  2833
 C         4.359379         0.817491         2.630021
 C         3.207874         0.661675         1.608949
 C         1.755915         0.584178         1.828311
 C         1.266131         0.324630         0.415363
 C        -0.205684         0.262245         0.093632
 O         1.970059         1.507298        -0.303215
 C         3.324856         1.258032         0.234822
 C         3.367986        -0.266649         0.368874
 O         2.078628        -0.843624        -0.022607
 H         4.423091         1.854425         2.853463
 H         4.020880         0.268497         3.561497
 H         5.269579         0.333179         2.294626
 H         1.533565        -0.203620         2.585555
 H         1.547948         1.626475         2.166414
 H        -0.539993        -0.697092        -0.290417
 H        -0.860477         0.521815         1.021741
 H        -0.462428         1.048691        -0.591887
 H         4.065756         1.885327        -0.252391
 H         4.226398        -0.988909         0.265857
