19
Iteration:  4003charge 0 multiplicity 1
 C         4.274069         0.636105         2.573852
 C         3.187397         0.608246         1.594457
 C         1.682743         0.561510         1.876817
 C         1.276117         0.389485         0.403366
 C        -0.244475         0.233527         0.095342
 O         1.907254         1.482321        -0.313991
 C         3.317422         1.292086         0.240452
 C         3.479026        -0.131930         0.293845
 O         2.235643        -0.741968         0.075215
 H         4.252883         1.309215         3.465857
 H         4.473520        -0.392947         2.963030
 H         5.083912         0.960728         1.906983
 H         1.318377        -0.231187         2.613499
 H         1.372864         1.539177         2.323056
 H        -0.390404        -0.195960        -0.928260
 H        -0.630898        -0.456275         0.787278
 H        -0.765353         1.156220         0.340801
 H         3.888019         2.113483        -0.112992
 H         4.367095        -0.744366         0.087022
