19
Iteration:   795
 C         4.540464        -0.063756         2.403033
 C         3.314357         0.357826         1.543487
 C         1.943212        -0.223500         1.700781
 C         1.281371         0.366430         0.386620
 C        -0.093054         0.061183        -0.043046
 O         1.471781         1.768411         0.621705
 C         2.920315         1.743073         0.818453
 C         3.409098         0.523925        -0.043237
 O         2.323106        -0.172586        -0.514737
 H         4.360770        -0.022940         3.428967
 H         4.826930        -1.117988         2.126884
 H         5.508485         0.522633         2.229205
 H         2.013432        -1.341506         1.727669
 H         1.474790         0.154758         2.600787
 H        -0.884642         0.208391         0.702411
 H        -0.325927         0.723957        -0.895820
 H        -0.240621        -0.983330        -0.437614
 H         3.302337         2.754539         0.696505
 H         4.365839         0.397438        -0.502527
