19
Iteration:  1202charge 0 multiplicity 1
 C         4.423065         0.354066         2.643576
 C         3.318898         0.380070         1.530314
 C         1.929638        -0.144427         1.754979
 C         1.315801         0.217968         0.408588
 C        -0.222780         0.239367         0.052976
 O         1.635085         1.724091         0.448756
 C         3.033664         1.602341         0.535033
 C         3.479194         0.235375        -0.004697
 O         2.221508        -0.352259        -0.536950
 H         4.204116         0.810000         3.604402
 H         4.629994        -0.714954         3.042779
 H         5.436919         0.628080         2.192317
 H         2.028754        -1.218748         1.801133
 H         1.347287         0.300838         2.545673
 H        -0.601343         1.201699         0.436261
 H        -0.298273         0.302919        -1.015521
 H        -0.798563        -0.621830         0.454487
 H         3.528999         2.570014         0.508235
 H         4.400178         0.168519        -0.638583
