19
Iteration:  2500
 C         4.280825         0.912702         2.591880
 C         3.243548         0.568494         1.604669
 C         1.779958         0.566082         1.908098
 C         1.311771         0.483635         0.369991
 C        -0.110526         0.241917         0.018485
 O         1.960681         1.557813        -0.153204
 C         3.266631         1.110563         0.150193
 C         3.317800        -0.345095         0.354200
 O         2.026122        -0.795589        -0.025739
 H         4.435562         1.922504         3.003563
 H         4.084685         0.298313         3.405432
 H         5.278066         0.541171         2.373179
 H         1.592701        -0.262358         2.566848
 H         1.690107         1.477513         2.494959
 H        -0.210399        -0.793036         0.272283
 H        -0.702457         0.970620         0.651605
 H        -0.302186         0.311669        -1.023228
 H         4.045384         1.754446        -0.294581
 H         4.133657        -0.905385         0.007091
