19
Iteration:  3345charge 0 multiplicity 1
 C         4.338177         0.683464         2.572949
 C         3.181108         0.653134         1.688738
 C         1.709226         0.673583         1.909732
 C         1.325422         0.430870         0.320740
 C        -0.078130         0.129125         0.139474
 O         1.989295         1.478792        -0.329562
 C         3.292046         1.243967         0.259956
 C         3.310030        -0.243392         0.415725
 O         2.063416        -0.737063        -0.090718
 H         4.165910         1.600828         3.046345
 H         4.464900        -0.003385         3.392541
 H         5.211403         0.751944         1.920069
 H         1.181734        -0.060209         2.494412
 H         1.322534         1.652520         2.097266
 H        -0.448565         0.413928        -0.891016
 H        -0.268660        -0.885238         0.485671
 H        -0.578172         0.740432         0.947105
 H         3.952506         1.929982        -0.249988
 H         4.139890        -0.886736         0.353987
