19
Iteration:  3250
 C         4.325484         0.859557         2.586080
 C         3.190292         0.604792         1.593185
 C         1.737879         0.471082         1.853950
 C         1.325434         0.365250         0.370686
 C        -0.184839         0.267776         0.087235
 O         2.004898         1.514334        -0.259679
 C         3.252407         1.269373         0.245589
 C         3.394046        -0.287400         0.379892
 O         2.073848        -0.777926         0.004335
 H         4.166631         1.865021         3.088436
 H         4.317045         0.094286         3.444450
 H         5.321137         0.824126         2.051544
 H         1.457993        -0.445654         2.424464
 H         1.266824         1.411821         2.275397
 H        -0.448597        -0.169013        -0.895819
 H        -0.764932        -0.202346         0.910153
 H        -0.538858         1.285257         0.060478
 H         4.175111         1.760534        -0.076788
 H         4.220861        -0.843350        -0.031655
