19
Iteration:   428charge 0 multiplicity 1
 C         4.534148         0.047826         2.295897
 C         3.317994         0.175963         1.428600
 C         2.003330        -0.529425         1.528257
 C         1.291808         0.339423         0.412405
 C        -0.085007         0.037512        -0.036590
 O         1.528904         1.714632         0.856356
 C         2.880079         1.616032         1.129396
 C         3.438889         0.575837         0.003518
 O         2.241782         0.237245        -0.753095
 H         4.173142         0.215685         3.360493
 H         5.085288        -0.904318         2.251112
 H         5.229785         0.830566         2.107604
 H         1.988805        -1.595701         1.330674
 H         1.474059        -0.440544         2.461131
 H        -0.485730        -0.963639         0.170544
 H        -0.680689         0.761059         0.524577
 H        -0.259415         0.256741        -1.090122
 H         3.210975         2.653401         1.287088
 H         4.269068         0.812963        -0.612892
