19
Iteration:  4570charge 0 multiplicity 1
 C         4.337412         0.809944         2.559184
 C         3.224557         0.494673         1.590060
 C         1.729937         0.476712         1.907300
 C         1.309240         0.382242         0.404576
 C        -0.140187         0.213235         0.093141
 O         1.949143         1.550996        -0.152162
 C         3.234847         1.266006         0.192841
 C         3.404391        -0.217767         0.256628
 O         2.089905        -0.701581        -0.013715
 H         3.857136         1.264971         3.476480
 H         4.917923        -0.097250         2.918734
 H         5.092856         1.547318         2.208099
 H         1.402351        -0.387138         2.528153
 H         1.283615         1.401112         2.302039
 H        -0.330193         0.414755        -1.002895
 H        -0.516695        -0.790724         0.382975
 H        -0.824080         0.819931         0.685744
 H         4.061576         1.926551         0.002059
 H         4.149923        -0.818544        -0.325680
