19
Iteration:  2231charge 0 multiplicity 1
 C         4.387831         0.597556         2.676196
 C         3.274256         0.622362         1.602391
 C         1.700174         0.655855         1.946206
 C         1.330291         0.344242         0.447371
 C        -0.134568         0.256371         0.130939
 O         1.899898         1.437369        -0.375760
 C         3.182883         1.357663         0.161454
 C         3.417962        -0.141390         0.313638
 O         2.092078        -0.795156        -0.005519
 H         4.203583         1.213586         3.528541
 H         4.480556        -0.495881         3.051701
 H         5.385568         0.828109         2.311294
 H         1.344639        -0.315636         2.467357
 H         1.187807         1.618722         2.349684
 H        -0.501648         1.320342         0.386760
 H        -0.283746         0.338467        -1.074838
 H        -0.759682        -0.593363         0.548355
 H         3.795056         2.158069        -0.126418
 H         4.290803        -0.691358        -0.118123
