19
Iteration:  1160
 C         4.467593         0.196575         2.521836
 C         3.276074         0.373130         1.615060
 C         1.792253        -0.160946         1.769792
 C         1.326351         0.386804         0.417639
 C        -0.112617         0.014678         0.096067
 O         1.717954         1.807760         0.312956
 C         3.036961         1.589570         0.561632
 C         3.429774         0.274231         0.083377
 O         2.201989        -0.181968        -0.530619
 H         4.246526         0.628773         3.562168
 H         4.857060        -0.852048         2.620476
 H         5.245492         0.908408         2.191676
 H         1.548861        -1.241399         1.986712
 H         1.371110         0.464111         2.593589
 H        -0.620123         0.671133        -0.654364
 H        -0.135315        -1.048877        -0.215678
 H        -0.843191         0.007158         0.987780
 H         3.652797         2.452261         0.759719
 H         4.277237        -0.083248        -0.569229
