19
Iteration:  4741charge 0 multiplicity 1
 C         4.315666         0.754432         2.696572
 C         3.372698         0.647735         1.544695
 C         1.816560         0.465462         1.888929
 C         1.243506         0.338718         0.539774
 C        -0.182129         0.293421         0.023663
 O         1.844038         1.490728        -0.219101
 C         3.230755         1.325807         0.120807
 C         3.404416        -0.188019         0.253479
 O         2.106015        -0.801228        -0.022892
 H         3.983602         1.458151         3.472030
 H         4.505172        -0.215079         3.156825
 H         5.281648         1.144163         2.340022
 H         1.549214        -0.431906         2.477910
 H         1.346852         1.245475         2.485603
 H        -0.284932         0.642426        -0.956356
 H        -0.452057        -0.788850         0.012871
 H        -0.906479         0.801477         0.647594
 H         3.976256         2.171856        -0.071110
 H         4.300995        -0.740655         0.053637
