19
Iteration:  3340
 C         4.330533         0.684088         2.568869
 C         3.171195         0.658751         1.684784
 C         1.692373         0.674453         1.866696
 C         1.351552         0.406112         0.332019
 C        -0.059283         0.111870         0.153318
 O         1.989099         1.527707        -0.318452
 C         3.283739         1.234823         0.245436
 C         3.280773        -0.259625         0.465484
 O         2.067793        -0.717967        -0.110541
 H         4.274060         1.722292         3.102110
 H         4.607105        -0.126366         3.296802
 H         5.243528         0.877318         1.973508
 H         1.259941        -0.057577         2.620173
 H         1.133028         1.644638         2.100908
 H        -0.545935         0.373019        -0.761876
 H        -0.237002        -0.957610         0.365184
 H        -0.506505         0.771476         0.910845
 H         4.115782         1.722397        -0.353562
 H         4.054823        -1.076796         0.369892
