19
Iteration:  3927
 C         4.328526         0.957294         2.706344
 C         3.316558         0.526317         1.561600
 C         1.891991         0.392983         1.927542
 C         1.355364         0.355917         0.495235
 C        -0.056516         0.274703        -0.053943
 O         1.832905         1.544213        -0.200003
 C         3.258994         1.219446         0.232025
 C         3.248548        -0.272237         0.191146
 O         1.983444        -0.765851         0.001523
 H         4.068809         2.039953         2.813317
 H         4.044582         0.402586         3.643567
 H         5.373192         0.713968         2.486998
 H         1.504073        -0.482327         2.539213
 H         1.656832         1.392912         2.334965
 H        -0.017338         0.542305        -1.139980
 H        -0.369882        -0.712407        -0.045836
 H        -0.644716         0.948440         0.538641
 H         3.928437         2.007565        -0.005450
 H         4.186605        -0.794248        -0.142132
