19
Iteration:   578charge 0 multiplicity 1
 C         4.441219         0.078614         2.375118
 C         3.319020         0.348007         1.459364
 C         2.015841        -0.436157         1.564327
 C         1.323757         0.257362         0.378745
 C        -0.136178         0.134882         0.023136
 O         1.515334         1.609960         0.772718
 C         2.938689         1.669880         0.951491
 C         3.451747         0.555028        -0.041117
 O         2.268922         0.060429        -0.678248
 H         4.094951         0.337482         3.446218
 H         4.646579        -0.973998         2.441650
 H         5.367368         0.671149         2.143964
 H         2.306916        -1.507299         1.369584
 H         1.397850        -0.330427         2.444185
 H        -0.624203         0.294469         0.984922
 H        -0.436227         1.026513        -0.515196
 H        -0.411375        -0.785715        -0.441597
 H         3.352292         2.655688         1.141626
 H         4.419189         0.602051        -0.484832
