19
Iteration:  2645charge 0 multiplicity 1
 C         4.410838         0.869343         2.668363
 C         3.257596         0.704133         1.648117
 C         1.733103         0.420133         1.881519
 C         1.287296         0.355384         0.397763
 C        -0.203436         0.396929         0.071038
 O         1.898646         1.378960        -0.316868
 C         3.260165         1.216460         0.203208
 C         3.440832        -0.249150         0.411344
 O         2.042158        -0.782723        -0.095222
 H         4.519154         1.927436         2.897093
 H         4.259518         0.305885         3.620013
 H         5.296936         0.454567         2.201980
 H         1.691409        -0.504572         2.501881
 H         1.199599         1.251119         2.401332
 H        -0.805603         0.317074         1.001320
 H        -0.334403         1.385590        -0.281561
 H        -0.332142        -0.374408        -0.761748
 H         4.002295         2.069110         0.097343
 H         4.129969        -0.966112         0.098100
