19
Iteration:  4317
 C         4.300341         0.617210         2.573127
 C         3.232529         0.723427         1.571648
 C         1.780217         0.521817         1.881601
 C         1.298508         0.320031         0.411593
 C        -0.193936         0.330257         0.125704
 O         1.884052         1.384001        -0.341667
 C         3.179579         1.414190         0.248944
 C         3.414966        -0.107006         0.351629
 O         2.206404        -0.807386         0.066954
 H         4.315776         1.452453         3.359782
 H         4.173752        -0.402497         3.037576
 H         5.293676         0.547658         2.050174
 H         1.408714        -0.331090         2.453661
 H         1.500374         1.426699         2.323332
 H        -0.260065         0.657987        -0.886770
 H        -0.370808        -0.782376         0.098665
 H        -0.841500         0.930907         0.762159
 H         3.778250         2.111511        -0.270038
 H         4.328754        -0.705460         0.062029
