19
Iteration:  1435
 C         4.372613         0.295324         2.496470
 C         3.282994         0.496847         1.532317
 C         1.786945         0.063144         1.824325
 C         1.298317         0.315815         0.473524
 C        -0.080512         0.071146         0.034763
 O         1.764938         1.749670         0.282319
 C         3.107791         1.542792         0.462183
 C         3.455781         0.152699         0.062312
 O         2.180450        -0.366311        -0.345407
 H         4.125902         0.960742         3.426982
 H         4.090358        -0.689619         2.866121
 H         5.329009         0.399669         2.044424
 H         1.753583        -0.951282         2.238891
 H         1.322676         0.767053         2.534823
 H        -0.809483         0.720107         0.519152
 H        -0.306330         0.158342        -1.076940
 H        -0.415021        -0.907923         0.332332
 H         3.669207         2.440732         0.397128
 H         4.346809        -0.285892        -0.334677
