19
Iteration:  2540
 C         4.322525         0.679147         2.633628
 C         3.209130         0.649672         1.633014
 C         1.771962         0.629993         1.941198
 C         1.338831         0.375466         0.387420
 C        -0.157485         0.294064         0.067665
 O         1.913626         1.431404        -0.375722
 C         3.232053         1.289393         0.156953
 C         3.398796        -0.200912         0.379618
 O         2.112808        -0.821254         0.069547
 H         4.268154         1.522499         3.377643
 H         4.283119        -0.366275         3.095277
 H         5.213610         0.738545         1.959589
 H         1.263743        -0.158686         2.499503
 H         1.369511         1.613115         2.186999
 H        -0.619949        -0.267006         0.901085
 H        -0.521855         1.323167         0.076903
 H        -0.461776        -0.149631        -0.920444
 H         4.081570         2.027464        -0.069017
 H         4.232435        -0.681128        -0.037615
