19
Iteration:  3721charge 0 multiplicity 1
 C         4.379172         0.934764         2.780485
 C         3.333478         0.659147         1.552539
 C         1.893548         0.484136         1.950317
 C         1.288080         0.348229         0.484729
 C        -0.145289         0.279251        -0.084153
 O         1.888742         1.510340        -0.087186
 C         3.218344         1.152325         0.165445
 C         3.309611        -0.274525         0.132412
 O         2.010369        -0.801147        -0.030284
 H         4.214328         1.934980         3.201765
 H         4.154196         0.313543         3.656817
 H         5.454478         0.876075         2.738243
 H         1.624252        -0.334814         2.654254
 H         1.308255         1.363552         2.183381
 H        -0.024025         0.538021        -1.271236
 H        -0.532871        -0.753513        -0.084707
 H        -1.099566         0.943192         0.170986
 H         4.046491         1.646035        -0.357448
 H         4.063992        -0.906404        -0.223098
