19
Iteration:  4061
 C         4.291000         0.906274         2.567364
 C         3.318059         0.451713         1.576831
 C         1.686247         0.400014         1.925383
 C         1.251579         0.355361         0.473349
 C        -0.184597         0.236986         0.008926
 O         1.990770         1.581790        -0.143188
 C         3.339289         1.244958         0.180030
 C         3.361811        -0.215778         0.230552
 O         2.080933        -0.745139         0.014857
 H         3.940473         1.936891         2.894624
 H         4.421098         0.207815         3.426275
 H         5.381819         1.038582         2.349267
 H         1.409229        -0.497462         2.493674
 H         1.509506         1.364554         2.444907
 H        -0.397458        -0.031596        -1.006783
 H        -0.795685        -0.525391         0.639712
 H        -0.694412         1.199499        -0.012064
 H         4.009315         2.095065        -0.024480
 H         4.230803        -0.762004        -0.133324
