19
Iteration:  1040
 C         4.422701         0.323451         2.540065
 C         3.324232         0.265624         1.497270
 C         1.912045        -0.229395         1.733284
 C         1.257461         0.382625         0.400246
 C        -0.150996         0.089830         0.040465
 O         1.623701         1.773929         0.537564
 C         3.084205         1.533397         0.777229
 C         3.490727         0.279831        -0.113505
 O         2.208955        -0.132945        -0.613170
 H         3.949209         0.852291         3.462825
 H         4.550211        -0.615476         3.032415
 H         5.291718         0.802972         2.196323
 H         1.648498        -1.320504         1.795104
 H         1.598667         0.228252         2.719788
 H        -0.616145        -0.423126         0.941188
 H        -0.775769         0.954671        -0.245706
 H        -0.242004        -0.707851        -0.739498
 H         3.760298         2.389784         0.794291
 H         4.343894        -0.154139        -0.680632
