19
Iteration:  1433
 C         4.379778         0.295509         2.513469
 C         3.283746         0.496212         1.512840
 C         1.809100         0.073166         1.812283
 C         1.293991         0.317193         0.475638
 C        -0.074310         0.089718         0.024712
 O         1.761234         1.741288         0.285783
 C         3.084499         1.528883         0.471956
 C         3.442666         0.164939         0.060109
 O         2.186896        -0.371795        -0.336894
 H         4.141349         0.940967         3.405141
 H         4.111063        -0.715234         2.920419
 H         5.377694         0.377860         2.038309
 H         1.764501        -0.960225         2.190715
 H         1.333050         0.773173         2.497724
 H        -0.795900         0.740949         0.514758
 H        -0.299769         0.087789        -1.111271
 H        -0.503991        -0.895601         0.377562
 H         3.630978         2.413169         0.390426
 H         4.357361        -0.262719        -0.288243
