19
Iteration:  2091
 C         4.365983         0.564841         2.649472
 C         3.319822         0.499471         1.587965
 C         1.707127         0.569883         1.867127
 C         1.241687         0.439847         0.425358
 C        -0.188802         0.085728         0.085672
 O         1.919415         1.598684        -0.124260
 C         3.247191         1.332760         0.194189
 C         3.394121        -0.188821         0.269323
 O         2.110407        -0.611191        -0.102405
 H         4.242408         1.612815         3.042602
 H         4.444154        -0.197978         3.532443
 H         5.397725         0.697027         2.292810
 H         1.301763        -0.291321         2.397933
 H         1.370698         1.569381         2.176243
 H        -0.149277        -0.827296        -0.546280
 H        -0.871938        -0.220281         0.963740
 H        -0.672364         1.004682        -0.210189
 H         4.053567         1.826775        -0.258545
 H         4.279824        -0.638726        -0.148344
