19
Iteration:  3652charge 0 multiplicity 1
 C         4.433831         0.694099         2.608778
 C         3.188087         0.698954         1.689533
 C         1.598627         0.606791         1.824898
 C         1.295451         0.300201         0.328250
 C        -0.132343         0.155071         0.149339
 O         1.966694         1.578121        -0.264333
 C         3.267059         1.196154         0.232070
 C         3.333460        -0.213552         0.417062
 O         2.150273        -0.730731        -0.128934
 H         4.265531         1.388759         3.417666
 H         4.538001        -0.292672         3.094496
 H         5.298951         0.936934         1.992004
 H         1.273895        -0.064896         2.604550
 H         1.088820         1.585549         2.054725
 H        -0.491160        -0.178633        -0.801425
 H        -0.428349        -0.446637         1.087990
 H        -0.564997         1.157094         0.385101
 H         3.958775         1.827281        -0.299320
 H         4.300676        -0.750677         0.315616
