19
Iteration:  3050charge 0 multiplicity 1
 C         4.294134         0.686026         2.661795
 C         3.185575         0.692744         1.600679
 C         1.763530         0.558211         1.940807
 C         1.332287         0.299754         0.470866
 C        -0.181770         0.284679         0.048736
 O         1.915967         1.436496        -0.256508
 C         3.251722         1.310837         0.197895
 C         3.440141        -0.205236         0.252497
 O         2.109799        -0.733366        -0.040517
 H         4.704464         1.657054         2.955172
 H         4.212743         0.068850         3.605432
 H         5.137498         0.233843         2.084906
 H         1.490709        -0.300087         2.505679
 H         1.335267         1.483276         2.231341
 H        -0.826887         0.174311         0.890721
 H        -0.663005         1.117638        -0.409954
 H        -0.350010        -0.581173        -0.548288
 H         4.033812         2.068837        -0.077016
 H         4.404369        -0.726238        -0.000826
