19
Iteration:  1977charge 0 multiplicity 1
 C         4.408274         0.745547         2.664080
 C         3.240517         0.422484         1.541343
 C         1.765015         0.328035         1.908810
 C         1.309219         0.469636         0.474620
 C        -0.176846         0.120977         0.074911
 O         1.929440         1.682090        -0.075061
 C         3.280833         1.334171         0.351127
 C         3.316986        -0.178299         0.226352
 O         2.057412        -0.644713        -0.260944
 H         4.174611         1.683954         2.931447
 H         4.203069         0.012299         3.383762
 H         5.491938         0.739147         2.385467
 H         1.508143        -0.693132         2.252189
 H         1.358833         1.193045         2.486687
 H        -0.880851         0.485078         0.840596
 H        -0.418140         0.579500        -0.802852
 H        -0.283991        -0.914566        -0.128021
 H         4.129798         1.928294         0.127721
 H         4.117602        -0.541652        -0.431002
