19
Iteration:  2338charge 0 multiplicity 1
 C         4.384412         0.833830         2.635979
 C         3.245994         0.669968         1.605343
 C         1.704886         0.425394         1.895364
 C         1.278256         0.301120         0.415872
 C        -0.115202         0.348683         0.058215
 O         1.909665         1.485758        -0.295098
 C         3.267507         1.253412         0.192368
 C         3.388925        -0.225525         0.386896
 O         2.077118        -0.797350        -0.021941
 H         4.411619         1.840181         3.089338
 H         4.221617        -0.023487         3.370837
 H         5.318287         0.662397         2.067382
 H         1.474938        -0.472777         2.513604
 H         1.234421         1.187186         2.569727
 H        -0.764415         0.342015         0.921524
 H        -0.183793         1.461309        -0.117052
 H        -0.657435        -0.326061        -0.577452
 H         4.079405         1.795435        -0.300935
 H         4.138998        -0.796275        -0.181863
