19
Iteration:    14charge 0 multiplicity 1
 C         4.699823        -0.186962         2.169943
 C         3.335868         0.196059         1.483235
 C         2.075585        -0.736068         1.225466
 C         1.292574         0.289264         0.386742
 C        -0.106909        -0.046214        -0.018271
 O         1.375749         1.572930         1.005282
 C         2.776441         1.613024         1.356667
 C         3.380036         1.029962         0.047667
 O         2.284064         0.557811        -0.743803
 H         4.752590        -0.332556         3.229898
 H         5.005735        -1.234518         1.667239
 H         5.407033         0.551826         1.897330
 H         2.417148        -1.472354         0.406200
 H         1.575452        -1.161538         2.059667
 H        -0.479044        -0.665822         0.745811
 H        -0.725682         0.839638        -0.077972
 H        -0.131568        -0.538024        -0.956043
 H         3.033406         2.289322         2.120451
 H         4.050060         1.751546        -0.502639
