19
Iteration:  4042
 C         4.302678         0.872175         2.744068
 C         3.328772         0.588423         1.589358
 C         1.927831         0.491875         1.966133
 C         1.301921         0.439546         0.505254
 C        -0.132326         0.215299        -0.070458
 O         1.820442         1.518739        -0.154060
 C         3.240845         1.234150         0.194418
 C         3.346314        -0.342313         0.215420
 O         1.997134        -0.694031        -0.082514
 H         3.982274         1.698225         3.348218
 H         4.483833        -0.008062         3.360533
 H         5.306165         1.072768         2.340217
 H         1.766174        -0.408128         2.489862
 H         1.601366         1.387966         2.472593
 H         0.035989        -0.290601        -1.027834
 H        -0.656049        -0.555151         0.563709
 H        -0.696181         1.138932        -0.354964
 H         4.025611         1.734889        -0.315143
 H         4.188792        -0.980786        -0.253069
