19
Iteration:  3537
 C         4.337347         0.782323         2.619392
 C         3.277164         0.652101         1.648779
 C         1.680832         0.589585         1.856054
 C         1.295918         0.426536         0.286010
 C        -0.185066         0.130987         0.128644
 O         1.990698         1.531111        -0.281103
 C         3.313562         1.239430         0.228186
 C         3.323097        -0.277608         0.436046
 O         2.076942        -0.728970        -0.062382
 H         4.440559         1.764180         3.176205
 H         4.370300        -0.045714         3.374363
 H         5.307522         0.671428         2.055371
 H         1.512781        -0.270967         2.571603
 H         1.248267         1.565624         2.164018
 H        -0.536397         0.262430        -0.898409
 H        -0.319466        -0.866381         0.431990
 H        -0.841613         0.662615         0.855141
 H         4.038735         1.890509        -0.239227
 H         4.103162        -1.012135         0.128040
