19
Iteration:   348charge 0 multiplicity 1
 C         4.617067        -0.090244         2.304087
 C         3.324041         0.200393         1.511783
 C         1.941974        -0.558706         1.413538
 C         1.257765         0.321948         0.398612
 C        -0.195038        -0.025574         0.075346
 O         1.474535         1.635855         0.775121
 C         2.887647         1.695625         1.091463
 C         3.414283         0.740850         0.103751
 O         2.354478         0.355183        -0.771121
 H         4.556109         0.069332         3.405987
 H         4.870337        -1.100002         2.108859
 H         5.503415         0.505868         1.913768
 H         2.261836        -1.620179         1.173464
 H         1.373204        -0.277393         2.319067
 H        -0.863727         0.799158         0.338492
 H        -0.319875        -0.180223        -1.021817
 H        -0.361800        -1.015767         0.534478
 H         3.274587         2.656533         1.311440
 H         4.376172         0.915550        -0.351584
