19
Iteration:  3524charge 0 multiplicity 1
 C         4.314125         0.718467         2.656975
 C         3.173695         0.753303         1.555896
 C         1.805205         0.675257         1.888193
 C         1.270036         0.306506         0.508507
 C        -0.215549         0.112270         0.048220
 O         1.998964         1.520623        -0.228721
 C         3.322465         1.212855         0.136053
 C         3.387950        -0.270091         0.333592
 O         2.060232        -0.702240        -0.043067
 H         4.196385         1.646018         3.258088
 H         4.193274        -0.201382         3.308812
 H         5.345007         0.767096         2.223572
 H         1.525726        -0.131379         2.577650
 H         1.358090         1.607500         2.276151
 H        -0.315903         0.370554        -1.015486
 H        -0.506200        -1.003335         0.176735
 H        -0.887665         0.839072         0.613568
 H         4.129664         1.761452        -0.254589
 H         4.239903        -0.877288         0.218288
