19
Iteration:  4788charge 0 multiplicity 1
 C         4.372277         0.649593         2.624331
 C         3.228971         0.649086         1.634614
 C         1.686797         0.593634         1.861964
 C         1.316598         0.383428         0.379712
 C        -0.204188         0.108143         0.164373
 O         1.873720         1.518880        -0.236225
 C         3.307359         1.385856         0.169695
 C         3.417668        -0.233025         0.355031
 O         2.132604        -0.702403        -0.096121
 H         4.184152         1.276982         3.476331
 H         4.465592        -0.346495         3.023127
 H         5.301485         0.961257         2.217823
 H         1.512548        -0.147375         2.696328
 H         1.277387         1.507530         2.395317
 H        -0.328736         0.090472        -0.979660
 H        -0.552116        -0.805611         0.486493
 H        -0.827022         0.936280         0.523468
 H         4.042406         1.929261        -0.331680
 H         4.236847        -0.929165         0.094310
