19
Iteration:  1779charge 0 multiplicity 1
 C         4.419955         0.485957         2.624360
 C         3.217874         0.486933         1.596184
 C         1.787267         0.330817         1.854733
 C         1.321216         0.366921         0.370632
 C        -0.111632         0.030306         0.081639
 O         1.817062         1.676527         0.064460
 C         3.276187         1.461354         0.450141
 C         3.358849        -0.036758         0.123419
 O         2.082707        -0.504893        -0.316449
 H         4.300499         1.413342         3.203624
 H         4.440414        -0.291803         3.403581
 H         5.321314         0.385230         1.929555
 H         1.332876        -0.616881         2.265320
 H         1.322320         1.231546         2.330932
 H        -0.424569        -0.907615         0.510155
 H        -0.777735         0.700385         0.717945
 H        -0.276129         0.131744        -0.975223
 H         3.848340         2.293775         0.238665
 H         4.197896        -0.604411        -0.242330
