19
Iteration:  3886charge 0 multiplicity 1
 C         4.338089         0.862869         2.478038
 C         3.169214         0.567964         1.623669
 C         1.718191         0.443975         1.851024
 C         1.288704         0.319936         0.315913
 C        -0.172291         0.315126         0.133066
 O         1.969087         1.529592        -0.213963
 C         3.211753         1.270518         0.270378
 C         3.402739        -0.229921         0.432452
 O         2.184213        -0.774220        -0.070563
 H         4.245883         1.828749         3.044943
 H         4.355975         0.142125         3.322882
 H         5.297604         0.691137         1.968791
 H         1.528701        -0.506028         2.392695
 H         1.122080         1.234047         2.313685
 H        -0.496257         0.215087        -0.998424
 H        -0.744266        -0.570540         0.622194
 H        -0.579987         1.218879         0.646345
 H         4.005083         1.964881         0.278145
 H         4.259536        -0.939131         0.266537
