19
Iteration:  4711
 C         4.340481         0.865541         2.548070
 C         3.239506         0.507603         1.640157
 C         1.660766         0.458182         1.879551
 C         1.322945         0.362925         0.441498
 C        -0.165920         0.141959         0.104524
 O         1.973966         1.605706        -0.135665
 C         3.303555         1.252046         0.236503
 C         3.378696        -0.272634         0.314332
 O         2.056885        -0.660721        -0.186271
 H         4.152919         1.854036         2.951567
 H         4.605235         0.165059         3.327452
 H         5.195000         0.943509         1.909177
 H         1.307781        -0.382917         2.539254
 H         1.219693         1.427259         2.290085
 H        -0.443652         0.306701        -0.969943
 H        -0.334474        -0.822379         0.494950
 H        -0.687048         0.601262         0.937351
 H         4.265056         1.857122         0.201893
 H         4.184326        -0.881811         0.053745
