19
Iteration:  2282
 C         4.355285         0.840798         2.693345
 C         3.272819         0.492948         1.602515
 C         1.769454         0.505245         1.945025
 C         1.287203         0.396426         0.463737
 C        -0.139319         0.204309         0.078912
 O         1.967914         1.597777        -0.277878
 C         3.288679         1.225133         0.208061
 C         3.300915        -0.239535         0.224718
 O         2.006971        -0.728269        -0.045024
 H         4.361009         1.930136         2.949597
 H         4.378297         0.320151         3.643631
 H         5.374157         0.654472         2.264425
 H         1.545169        -0.339627         2.567789
 H         1.374977         1.492021         2.160221
 H        -0.863280         0.332186         0.871647
 H        -0.267519         0.711432        -0.834405
 H        -0.243557        -0.797152        -0.330108
 H         4.089613         1.768192        -0.177765
 H         3.948886        -1.113117         0.020024
