19
Iteration:  2388charge 0 multiplicity 1
 C         4.369794         0.662305         2.672104
 C         3.240134         0.693128         1.618097
 C         1.778258         0.727466         1.858450
 C         1.324743         0.393142         0.355962
 C        -0.022448         0.171061         0.085664
 O         1.959405         1.557833        -0.222311
 C         3.228654         1.197703         0.131886
 C         3.291507        -0.264674         0.309250
 O         2.001528        -0.766382         0.027781
 H         3.856600         1.363887         3.374242
 H         4.471543        -0.245153         3.153452
 H         5.303356         1.152388         2.355047
 H         1.382079         0.004516         2.553849
 H         1.305035         1.644862         2.167259
 H        -0.217973        -0.847737         0.526591
 H        -0.713252         0.807315         0.539517
 H        -0.219304        -0.058600        -1.011025
 H         3.909331         1.751688        -0.436114
 H         3.940878        -1.220135         0.077840
