19
Iteration:  1879charge 0 multiplicity 1
 C         4.343011         0.609834         2.590135
 C         3.256915         0.505901         1.551860
 C         1.775596         0.355458         1.927029
 C         1.316739         0.437280         0.335612
 C        -0.116192         0.080649         0.101306
 O         1.871440         1.750411         0.040479
 C         3.279353         1.326427         0.389898
 C         3.333707        -0.136814         0.171310
 O         2.084521        -0.630720        -0.242486
 H         3.944355         1.180964         3.414015
 H         4.585587        -0.453582         2.933767
 H         5.221082         1.134499         2.048706
 H         1.558637        -0.669481         2.305572
 H         1.265019         1.177744         2.472194
 H        -0.261859         0.367618        -0.962742
 H        -0.325846        -0.940112         0.242607
 H        -0.718040         0.703739         0.704207
 H         3.983911         2.189397         0.142477
 H         4.100718        -0.764964        -0.307324
