19
Iteration:  3800charge 0 multiplicity 1
 C         4.329392         0.702747         2.699137
 C         3.266759         0.605264         1.567558
 C         1.758439         0.576672         1.932130
 C         1.281045         0.417775         0.495963
 C        -0.192093         0.162889         0.037857
 O         1.832923         1.454735        -0.305519
 C         3.271449         1.326398         0.164497
 C         3.438589        -0.209062         0.305624
 O         2.156251        -0.706594        -0.010722
 H         4.107610         1.386746         3.542554
 H         4.352149        -0.308634         3.082510
 H         5.316914         0.969280         2.310553
 H         1.536825        -0.246547         2.629210
 H         1.456609         1.509015         2.406725
 H        -0.152673        -0.092928        -1.085849
 H        -0.776492        -0.564239         0.688796
 H        -0.795244         1.106861         0.044341
 H         3.939220         2.066008        -0.253188
 H         4.265040        -0.815469        -0.174896
