19
Iteration:  3421
 C         4.316250         0.941506         2.589794
 C         3.267973         0.430401         1.619872
 C         1.750693         0.489761         1.911756
 C         1.276404         0.378928         0.371357
 C        -0.235337         0.264989         0.009481
 O         2.004171         1.510917        -0.181801
 C         3.281810         1.206840         0.212489
 C         3.398243        -0.217700         0.314445
 O         2.066797        -0.754361        -0.006929
 H         4.199667         2.019158         2.767400
 H         4.256269         0.368399         3.503652
 H         5.333941         0.814965         2.164988
 H         1.475821        -0.413289         2.454731
 H         1.474859         1.412055         2.401614
 H        -0.480377        -0.294430        -0.952360
 H        -0.734406        -0.195647         0.933797
 H        -0.617691         1.313911        -0.023147
 H         4.090280         1.854897         0.022486
 H         4.115614        -0.955386        -0.038149
