19
Iteration:  4447charge 0 multiplicity 1
 C         4.290258         0.651545         2.640908
 C         3.292599         0.586228         1.555893
 C         1.870227         0.495756         1.919974
 C         1.325560         0.365969         0.460910
 C        -0.095912         0.193621         0.025372
 O         1.789480         1.554405        -0.201512
 C         3.160838         1.367964         0.211235
 C         3.383319        -0.197559         0.243983
 O         2.128669        -0.683547         0.009220
 H         4.567956         1.705279         2.809245
 H         3.903602         0.146843         3.531688
 H         5.262073         0.222948         2.333946
 H         1.757903        -0.474883         2.452859
 H         1.494931         1.407859         2.351667
 H        -0.113579        -0.357884        -0.879254
 H        -0.692909        -0.479456         0.695572
 H        -0.670601         1.122283         0.013424
 H         3.873463         2.069626        -0.319000
 H         4.120972        -0.880529        -0.045104
