19
Iteration:  2087charge 0 multiplicity 1
 C         4.357284         0.559720         2.639234
 C         3.298132         0.508135         1.590156
 C         1.721350         0.578764         1.862368
 C         1.252677         0.447551         0.430545
 C        -0.156318         0.054054         0.103986
 O         1.935444         1.598857        -0.104342
 C         3.265800         1.333420         0.177831
 C         3.352336        -0.187868         0.285832
 O         2.086427        -0.622483        -0.126974
 H         4.156363         1.486030         3.114110
 H         4.450228        -0.139333         3.442137
 H         5.375531         0.749165         2.293375
 H         1.325448        -0.248146         2.524380
 H         1.344116         1.608126         2.132422
 H        -0.084668        -0.848527        -0.461249
 H        -0.842772        -0.174791         0.909621
 H        -0.578141         1.011553        -0.333833
 H         4.114099         1.998292        -0.212263
 H         4.213351        -0.612433        -0.221708
