19
Iteration:   755charge 0 multiplicity 1
 C         4.453609         0.133895         2.400857
 C         3.296812         0.267142         1.542419
 C         1.941094        -0.341996         1.653535
 C         1.339901         0.392741         0.357733
 C        -0.124845         0.057274         0.050582
 O         1.553829         1.751615         0.631803
 C         2.977033         1.619533         0.903722
 C         3.418741         0.443788         0.015646
 O         2.286082        -0.034614        -0.713271
 H         4.182553         0.548629         3.469217
 H         4.807868        -0.878539         2.477859
 H         5.235630         0.707722         1.971512
 H         2.040437        -1.414522         1.514209
 H         1.180637        -0.178931         2.460135
 H        -0.470320         1.063629         0.157701
 H        -0.353100        -0.448790        -0.892947
 H        -0.522205        -0.558549         0.850934
 H         3.432605         2.566554         1.216427
 H         4.312469         0.262718        -0.445023
