19
Iteration:   305
 C         4.487057        -0.121296         2.190970
 C         3.327537         0.287393         1.432581
 C         2.088960        -0.543171         1.595200
 C         1.287182         0.317272         0.482729
 C        -0.095098        -0.049237        -0.151323
 O         1.517516         1.606236         0.942875
 C         2.925863         1.668583         1.073577
 C         3.362601         0.834661        -0.001472
 O         2.218927         0.328330        -0.675971
 H         4.087162        -0.228541         3.237656
 H         4.963713        -0.974015         1.810914
 H         5.340278         0.594742         2.342051
 H         2.102366        -1.627356         1.231273
 H         1.654275        -0.393301         2.589948
 H        -0.132838         0.610896        -1.030905
 H        -0.022414        -1.082150        -0.573762
 H        -1.023063        -0.028890         0.437396
 H         3.281358         2.633369         1.334185
 H         4.263898         0.834798        -0.527151
