19
Iteration:  4699charge 0 multiplicity 1
 C         4.380243         0.856416         2.503500
 C         3.126016         0.460790         1.615446
 C         1.694428         0.441013         1.877739
 C         1.267677         0.428763         0.379948
 C        -0.168956         0.124411         0.204411
 O         2.029665         1.604853        -0.132866
 C         3.293220         1.240966         0.318254
 C         3.388147        -0.243815         0.276413
 O         2.102074        -0.675488        -0.151006
 H         4.259261         1.894732         2.775125
 H         4.477002         0.363267         3.441570
 H         5.306590         0.798837         1.973003
 H         1.194720        -0.438994         2.370881
 H         1.310022         1.426782         2.287181
 H        -0.323499         0.174283        -0.855407
 H        -0.340750        -0.927782         0.327974
 H        -0.908378         0.852717         0.442906
 H         3.899386         2.217650         0.132639
 H         4.171773        -0.961356         0.103473
