19
Iteration:  2853
 C         4.373366         0.710701         2.683666
 C         3.262000         0.677788         1.583824
 C         1.714711         0.611044         1.927967
 C         1.287505         0.306550         0.359955
 C        -0.263760         0.297324         0.058459
 O         1.951900         1.422066        -0.362574
 C         3.250440         1.301965         0.117340
 C         3.419092        -0.252139         0.363535
 O         2.135144        -0.763822         0.102709
 H         4.729565         1.684320         3.073041
 H         4.158750         0.114512         3.623467
 H         5.285200         0.163737         2.351264
 H         1.436804        -0.324939         2.412462
 H         1.196063         1.528944         2.262898
 H        -0.640670        -0.663156        -0.262302
 H        -0.848036         0.614265         0.964716
 H        -0.598041         1.032815        -0.636866
 H         3.893913         2.064570        -0.221049
 H         4.396348        -0.618685         0.015421
