19
Iteration:  3606charge 0 multiplicity 1
 C         4.338492         0.900284         2.750927
 C         3.306242         0.579088         1.584854
 C         1.865404         0.444115         1.925610
 C         1.307039         0.374886         0.525327
 C        -0.088424         0.286503        -0.092915
 O         1.847262         1.540365        -0.160896
 C         3.212938         1.241666         0.054648
 C         3.327971        -0.274106         0.204510
 O         2.030150        -0.788838         0.082068
 H         4.109088         1.808594         3.344963
 H         4.187424         0.103971         3.489510
 H         5.327793         0.796236         2.275652
 H         1.496413        -0.455473         2.481440
 H         1.476991         1.291731         2.548766
 H         0.158263         0.000313        -1.088891
 H        -0.770992        -0.404632         0.381956
 H        -0.487888         1.226526        -0.181629
 H         4.097256         1.746809        -0.498225
 H         4.046417        -0.797277        -0.354628
