19
Iteration:  3810
 C         4.243915         0.629243         2.714967
 C         3.310465         0.679006         1.521541
 C         1.816949         0.627171         1.960034
 C         1.299893         0.447386         0.508734
 C        -0.083506         0.124918         0.009105
 O         1.874876         1.510622        -0.212446
 C         3.182294         1.277882         0.088273
 C         3.406268        -0.180499         0.175011
 O         2.086158        -0.763140         0.072636
 H         3.799933         1.352354         3.428406
 H         4.417897        -0.353733         3.159339
 H         5.215938         1.010228         2.379537
 H         1.524610        -0.268638         2.542416
 H         1.431166         1.565671         2.334947
 H         0.010834        -0.375543        -1.076754
 H        -0.660979        -0.662609         0.615745
 H        -0.603642         1.142428        -0.029415
 H         3.912586         2.019389        -0.185723
 H         4.377822        -0.676186        -0.095982
