19
Iteration:   920
 C         4.475288         0.156672         2.514024
 C         3.350870         0.330769         1.445733
 C         1.908213        -0.298054         1.717891
 C         1.251747         0.330177         0.472528
 C        -0.098331         0.051867        -0.042817
 O         1.612724         1.792502         0.620453
 C         3.049756         1.630242         0.701157
 C         3.433020         0.430137        -0.071972
 O         2.186163        -0.139058        -0.548718
 H         4.089867         0.620210         3.541120
 H         4.660426        -0.845996         2.856243
 H         5.358386         0.655673         2.197465
 H         1.673365        -1.383777         1.629763
 H         1.558583         0.026906         2.747861
 H        -0.122935         0.110209        -1.174084
 H        -0.508941        -0.968853         0.152405
 H        -0.758123         0.833706         0.343095
 H         3.526870         2.494788         1.123431
 H         4.207378         0.427742        -0.829496
