19
Iteration:   727
 C         4.401172         0.224636         2.529183
 C         3.411929         0.182181         1.476583
 C         1.932276        -0.452295         1.604153
 C         1.284471         0.418981         0.429788
 C        -0.171554         0.036461        -0.005266
 O         1.616479         1.735260         0.740317
 C         3.035006         1.528982         0.835970
 C         3.434330         0.505969        -0.129213
 O         2.211009         0.070166        -0.638033
 H         4.057999         0.771576         3.366025
 H         4.791315        -0.829496         2.725377
 H         5.360847         0.685404         2.147601
 H         1.939218        -1.563861         1.626452
 H         1.323957        -0.087580         2.442983
 H        -0.461336         0.813655        -0.784401
 H        -0.230569        -1.011319        -0.400801
 H        -0.944980         0.132861         0.808227
 H         3.607707         2.464928         0.971936
 H         4.298305         0.409009        -0.855952
