19
Iteration:  3033charge 0 multiplicity 1
 C         4.463827         0.687498         2.665524
 C         3.229143         0.585209         1.639913
 C         1.714668         0.588490         1.862672
 C         1.232300         0.452640         0.366525
 C        -0.169575         0.124929         0.115351
 O         1.931851         1.513957        -0.304648
 C         3.284597         1.312366         0.249826
 C         3.344496        -0.233183         0.361090
 O         2.104708        -0.695804        -0.093310
 H         4.522871         1.737951         2.988091
 H         3.950742         0.187641         3.449427
 H         5.416494         0.244137         2.390737
 H         1.310303        -0.254735         2.524675
 H         1.243401         1.492697         2.386174
 H        -0.680447        -0.006670         1.115508
 H        -0.439853         1.041478        -0.477080
 H        -0.251451        -0.835708        -0.499181
 H         3.927897         1.987565        -0.200018
 H         4.142797        -0.924212         0.116808
