19
Iteration:  3005charge 0 multiplicity 1
 C         4.299618         0.764383         2.574287
 C         3.173689         0.623593         1.560162
 C         1.750533         0.600461         1.877608
 C         1.240090         0.406394         0.409274
 C        -0.136801         0.085063         0.073125
 O         2.018703         1.629623        -0.130941
 C         3.352905         1.192614         0.218855
 C         3.360009        -0.263814         0.240504
 O         2.065366        -0.726810        -0.004933
 H         4.262207         1.791582         3.035558
 H         3.989143         0.011531         3.358691
 H         5.303171         0.536882         2.163917
 H         1.541415        -0.231544         2.532071
 H         1.301227         1.497363         2.251588
 H        -0.739900        -0.025024         0.960632
 H        -0.567302         0.971892        -0.449717
 H        -0.133111        -0.776937        -0.531935
 H         4.107100         1.957099        -0.158952
 H         4.032632        -1.104661         0.132408
