19
Iteration:  2450
 C         4.329751         0.871189         2.568305
 C         3.272536         0.691824         1.606319
 C         1.708114         0.549149         1.898695
 C         1.352439         0.352984         0.416730
 C        -0.180563         0.393876         0.066540
 O         1.860757         1.487835        -0.235943
 C         3.280372         1.186815         0.225926
 C         3.348467        -0.373898         0.406095
 O         2.151086        -0.849236        -0.064820
 H         4.308409         1.892043         2.973703
 H         4.338174         0.199326         3.575041
 H         5.378509         0.801396         2.223630
 H         1.529270        -0.406703         2.480104
 H         1.142924         1.435269         2.304656
 H        -0.494124        -0.641404        -0.236232
 H        -0.716683         0.898463         0.874789
 H        -0.294939         1.045635        -0.832200
 H         4.046108         1.583976        -0.338152
 H         4.158487        -1.122663         0.088406
