19
Iteration:  2646
 C         4.407713         0.870673         2.673360
 C         3.261495         0.696012         1.645428
 C         1.730152         0.424818         1.882499
 C         1.294187         0.350232         0.391756
 C        -0.200360         0.397825         0.070460
 O         1.894520         1.380888        -0.317343
 C         3.245028         1.216338         0.195317
 C         3.443588        -0.254495         0.412992
 O         2.047042        -0.774797        -0.090471
 H         4.557640         1.900134         2.912942
 H         4.302446         0.318857         3.639085
 H         5.281029         0.447595         2.217332
 H         1.701535        -0.500161         2.508595
 H         1.177852         1.250704         2.403215
 H        -0.788236         0.316986         0.990811
 H        -0.381015         1.387100        -0.276841
 H        -0.326784        -0.359366        -0.751796
 H         4.027370         2.039869         0.093882
 H         4.117595        -0.951480         0.084345
