19
Iteration:  2237charge 0 multiplicity 1
 C         4.366699         0.577599         2.655259
 C         3.234398         0.626686         1.595958
 C         1.691680         0.620973         1.964948
 C         1.303176         0.376058         0.475804
 C        -0.151447         0.270720         0.115124
 O         1.858641         1.451696        -0.374440
 C         3.241926         1.342074         0.126848
 C         3.414518        -0.162668         0.325597
 O         2.157959        -0.782506        -0.013739
 H         4.224280         1.297738         3.522245
 H         4.448438        -0.367588         3.113335
 H         5.383350         0.822232         2.244736
 H         1.240306        -0.222849         2.410070
 H         1.423864         1.573316         2.323929
 H        -0.527040         1.097610         0.684448
 H        -0.186252         0.329995        -0.877708
 H        -0.809443        -0.524561         0.390867
 H         3.909259         2.131352        -0.326127
 H         4.334998        -0.693248         0.170337
