19
Iteration:  3597
 C         4.336265         0.921071         2.737957
 C         3.336778         0.617577         1.607475
 C         1.854887         0.471756         1.897074
 C         1.267921         0.304325         0.507546
 C        -0.101284         0.348070        -0.068991
 O         1.832580         1.571612        -0.126650
 C         3.254626         1.175049         0.089336
 C         3.349382        -0.316422         0.286056
 O         2.037848        -0.813440        -0.024239
 H         4.298804         1.925498         3.113622
 H         4.228106         0.184339         3.537446
 H         5.338217         0.772240         2.341597
 H         1.832080        -0.459384         2.461661
 H         1.221695         1.232228         2.370517
 H         0.047714         0.065487        -1.087382
 H        -0.798774        -0.504192         0.267964
 H        -0.528764         1.333810        -0.041494
 H         3.610188         1.912093        -0.584686
 H         4.157819        -0.881303        -0.069691
