19
Iteration:  4456charge 0 multiplicity 1
 C         4.332454         0.696338         2.619142
 C         3.301835         0.631347         1.518071
 C         1.839410         0.486736         1.899034
 C         1.288238         0.367160         0.404921
 C        -0.094251         0.103916         0.051033
 O         1.855704         1.605156        -0.137697
 C         3.214374         1.348087         0.203042
 C         3.376514        -0.203040         0.291478
 O         2.045221        -0.713991        -0.048939
 H         4.611543         1.660049         3.038597
 H         3.910628         0.175298         3.471615
 H         5.178799         0.047488         2.388608
 H         1.492454        -0.306258         2.650608
 H         1.441854         1.424223         2.419742
 H        -0.166102        -0.346577        -1.002314
 H        -0.521936        -0.528450         0.879539
 H        -0.692347         1.069937         0.005695
 H         3.896941         2.131483        -0.208217
 H         4.247803        -0.774473         0.064032
