19
Iteration:  3026
 C         4.423263         0.698830         2.653684
 C         3.178387         0.560037         1.608370
 C         1.745705         0.583121         1.841590
 C         1.282997         0.453447         0.376037
 C        -0.163634         0.091656         0.094475
 O         1.947655         1.602397        -0.256559
 C         3.285092         1.333055         0.208241
 C         3.351044        -0.305028         0.442698
 O         2.069650        -0.709329        -0.077884
 H         4.556165         1.792023         2.953302
 H         4.113884         0.130470         3.597816
 H         5.385162         0.275938         2.294227
 H         1.307671        -0.294479         2.291781
 H         1.407563         1.542133         2.202093
 H        -0.699856         0.022933         1.044488
 H        -0.848457         0.863180        -0.381496
 H        -0.211264        -0.838715        -0.416746
 H         4.132200         1.882152        -0.351444
 H         4.264824        -0.669295        -0.020405
