19
Iteration:  4821
 C         4.300209         0.780524         2.540130
 C         3.239766         0.511754         1.576258
 C         1.699786         0.525679         1.925306
 C         1.335003         0.498568         0.387592
 C        -0.139009         0.032731         0.167681
 O         1.971638         1.652916        -0.165506
 C         3.339038         1.330223         0.306956
 C         3.370118        -0.299041         0.276338
 O         2.037915        -0.723396        -0.105387
 H         4.243293         1.819912         2.824157
 H         4.382663         0.156758         3.411613
 H         5.225455         0.678168         2.016265
 H         1.200500        -0.406504         2.375723
 H         1.315121         1.548667         2.274413
 H        -0.199315        -0.335872        -0.904752
 H        -0.491479        -0.681382         0.825234
 H        -0.873970         0.842341         0.012972
 H         4.085525         1.991673        -0.038088
 H         4.141997        -1.072754        -0.058431
