19
Iteration:  1321charge 0 multiplicity 1
 C         4.349592         0.271651         2.605937
 C         3.324366         0.467238         1.563214
 C         1.924149        -0.012051         1.872337
 C         1.292332         0.345597         0.419039
 C        -0.137727         0.146197         0.048945
 O         1.657237         1.768253         0.337906
 C         3.063857         1.563653         0.479956
 C         3.410617         0.203652        -0.041728
 O         2.253367        -0.403253        -0.458139
 H         4.040745         0.507372         3.578336
 H         4.508846        -0.834053         2.680437
 H         5.375586         0.800746         2.498240
 H         1.957918        -1.074751         2.054436
 H         1.328302         0.440043         2.645104
 H        -0.140240        -0.679171        -0.685110
 H        -0.735885        -0.144487         0.871584
 H        -0.465111         1.167975        -0.247124
 H         3.593290         2.476349         0.312412
 H         4.156591        -0.330674        -0.589461
