19
Iteration:   878charge 0 multiplicity 1
 C         4.398274         0.256020         2.510669
 C         3.248387         0.267886         1.482044
 C         1.919593        -0.464279         1.619567
 C         1.372545         0.268616         0.468872
 C        -0.183758         0.203177         0.157531
 O         1.598266         1.693480         0.542152
 C         2.990098         1.633583         0.703585
 C         3.519220         0.485918        -0.013804
 O         2.284995        -0.077289        -0.659004
 H         4.281070         0.703434         3.523558
 H         4.434239        -0.786230         2.798333
 H         5.320835         0.593502         2.101330
 H         2.002848        -1.568264         1.665555
 H         1.367420        -0.034747         2.466199
 H        -0.469679        -0.683388        -0.483786
 H        -0.760658         0.133243         1.075580
 H        -0.399645         1.103142        -0.422112
 H         3.359694         2.563608         1.058203
 H         4.474993         0.309861        -0.488473
