19
Iteration:  3425
 C         4.317530         0.930050         2.584013
 C         3.287463         0.411692         1.638464
 C         1.729802         0.491068         1.885252
 C         1.264623         0.388009         0.375215
 C        -0.233649         0.270945         0.005189
 O         2.012479         1.551435        -0.197591
 C         3.283394         1.218748         0.238946
 C         3.398925        -0.239082         0.347813
 O         2.073908        -0.785674        -0.015509
 H         4.211501         2.018780         2.595454
 H         4.303228         0.258241         3.484710
 H         5.295483         0.954528         2.063263
 H         1.337689        -0.374533         2.429281
 H         1.396372         1.455393         2.316281
 H        -0.584860        -0.359150        -0.818503
 H        -0.557458        -0.222866         0.996092
 H        -0.649420         1.258957         0.060678
 H         4.048346         2.026714        -0.011073
 H         4.163044        -0.959974        -0.038869
