19
Iteration:  1810
 C         4.352579         0.514497         2.581633
 C         3.217499         0.517461         1.600447
 C         1.810102         0.204129         1.934698
 C         1.310821         0.361891         0.460153
 C        -0.206077         0.243306         0.048485
 O         1.756287         1.638303         0.024069
 C         3.230065         1.447468         0.266572
 C         3.439336        -0.016049         0.159292
 O         2.224285        -0.634200        -0.218531
 H         4.012649         1.349233         3.387803
 H         4.439389        -0.475330         3.057653
 H         5.275257         0.971217         2.112286
 H         1.547945        -0.881514         2.103063
 H         1.350429         0.890484         2.686378
 H        -0.443635        -0.703900        -0.432093
 H        -0.706457         0.634923         1.029004
 H        -0.346013         1.146503        -0.608548
 H         3.895076         2.173965        -0.057712
 H         4.352996        -0.464710        -0.214991
