19
Iteration:   895
 C         4.396024         0.195028         2.541910
 C         3.360682         0.376704         1.497518
 C         2.017973        -0.299588         1.710383
 C         1.310470         0.237668         0.349959
 C        -0.167544         0.220158         0.052801
 O         1.558382         1.641120         0.628044
 C         2.993644         1.602859         0.765999
 C         3.412662         0.358340        -0.037210
 O         2.276687        -0.067933        -0.673553
 H         4.047068         0.803083         3.437448
 H         4.561710        -0.824818         2.967475
 H         5.395492         0.590534         2.167067
 H         2.131624        -1.356645         1.517569
 H         1.471243        -0.204984         2.680647
 H        -0.458197        -0.335307        -0.835948
 H        -0.707252        -0.354083         0.877353
 H        -0.575753         1.249858         0.025058
 H         3.475004         2.624521         0.612704
 H         4.325528         0.345043        -0.726140
