19
Iteration:  1368
 C         4.388595         0.472686         2.480770
 C         3.215610         0.376158         1.528143
 C         1.761990        -0.117712         1.818815
 C         1.317579         0.400697         0.398026
 C        -0.107415         0.172662         0.092947
 O         1.765686         1.814875         0.361965
 C         3.082508         1.542286         0.573247
 C         3.456280         0.044195         0.055921
 O         2.214297        -0.424441        -0.516366
 H         4.137713         1.138360         3.428507
 H         4.520493        -0.530777         2.988242
 H         5.291089         0.949440         2.039565
 H         1.548768        -1.182116         2.059453
 H         1.252644         0.467001         2.598688
 H        -0.394815         0.438319        -0.925146
 H        -0.209539        -0.968128         0.047227
 H        -0.662115         0.527210         1.011649
 H         3.871405         2.300153         0.699575
 H         4.498194        -0.082237        -0.288572
