19
Iteration:  4854
 C         4.361845         0.851570         2.684957
 C         3.289235         0.670166         1.582841
 C         1.884186         0.371697         2.013454
 C         1.304565         0.281261         0.439974
 C        -0.192288         0.349743        -0.003188
 O         1.849341         1.506192        -0.178769
 C         3.213790         1.319499         0.205885
 C         3.402108        -0.206711         0.243261
 O         2.040070        -0.849585        -0.093218
 H         4.530739         1.887483         2.938007
 H         4.116225         0.294238         3.583470
 H         5.272623         0.472635         2.267254
 H         1.582775        -0.573369         2.606055
 H         1.286708         1.253774         2.469763
 H        -0.083836        -0.118169        -1.026533
 H        -0.948236        -0.155284         0.521705
 H        -0.408489         1.445369         0.025525
 H         3.894781         2.059342        -0.231644
 H         4.281119        -0.752899        -0.241319
