19
Iteration:  3553charge 0 multiplicity 1
 C         4.423942         0.823947         2.594080
 C         3.104364         0.507164         1.648611
 C         1.629515         0.538788         1.803124
 C         1.321896         0.477524         0.348532
 C        -0.108266         0.222913         0.196592
 O         1.974619         1.526824        -0.348069
 C         3.238335         1.251041         0.274099
 C         3.393565        -0.273686         0.371467
 O         2.116585        -0.773329        -0.032821
 H         4.259834         1.857494         2.806812
 H         4.468701         0.374853         3.599136
 H         5.316344         0.638608         2.008620
 H         1.028448        -0.288596         2.190847
 H         1.284979         1.365286         2.422346
 H        -0.532473         0.257974        -0.815526
 H        -0.234468        -0.914329         0.470664
 H        -0.589126         1.015896         0.746401
 H         4.140311         1.885336         0.145774
 H         4.277990        -0.850438         0.239838
