19
Iteration:  4433
 C         4.330639         0.674493         2.657928
 C         3.283521         0.596755         1.543342
 C         1.786835         0.465126         1.960383
 C         1.229722         0.397300         0.550717
 C        -0.188067         0.284242         0.056989
 O         1.823459         1.425837        -0.226353
 C         3.207278         1.343922         0.121843
 C         3.434723        -0.090486         0.206925
 O         2.201798        -0.778718        -0.010364
 H         4.364448         1.699818         3.018539
 H         4.094510         0.117882         3.565818
 H         5.321455         0.334902         2.365311
 H         1.494652        -0.517897         2.473743
 H         1.426134         1.237058         2.749286
 H         0.000417        -0.044114        -1.056242
 H        -0.923382        -0.304954         0.631217
 H        -0.539218         1.374134        -0.077301
 H         3.885469         2.097056        -0.192805
 H         4.374086        -0.436797        -0.302232
