19
Iteration:  3241
 C         4.360141         0.834514         2.603950
 C         3.181670         0.546385         1.627319
 C         1.689602         0.519019         1.863169
 C         1.292211         0.421785         0.369615
 C        -0.132872         0.296998         0.147893
 O         1.957012         1.507139        -0.307389
 C         3.291715         1.205780         0.221263
 C         3.392712        -0.295652         0.362573
 O         2.085434        -0.750680        -0.055869
 H         4.260213         1.920704         2.914483
 H         4.435492         0.221417         3.507720
 H         5.380293         0.812782         2.218577
 H         1.294744        -0.425150         2.361706
 H         1.100174         1.370044         2.367130
 H        -0.131655        -0.433640        -0.683554
 H        -0.545101        -0.342420         0.991514
 H        -0.680441         1.150758        -0.123513
 H         3.921217         2.062594         0.224015
 H         4.303631        -0.817304         0.242229
