19
Iteration:  2023charge 0 multiplicity 1
 C         4.423963         0.660527         2.636584
 C         3.214788         0.593677         1.586097
 C         1.759318         0.344055         1.952305
 C         1.312191         0.292665         0.429806
 C        -0.161089         0.374310         0.089832
 O         1.839480         1.563403        -0.185022
 C         3.155907         1.333773         0.325803
 C         3.412276        -0.161890         0.219546
 O         2.175729        -0.728640        -0.134505
 H         4.000358         1.346128         3.328875
 H         4.663532        -0.410498         3.030506
 H         5.354534         1.174632         2.304014
 H         1.720861        -0.707022         2.303030
 H         1.231868         1.152695         2.514565
 H        -0.906636        -0.032322         0.738778
 H        -0.440532         1.439400        -0.085502
 H        -0.313748         0.023138        -0.957348
 H         3.677986         2.109544        -0.250768
 H         4.280145        -0.725968        -0.126600
