19
Iteration:  1806
 C         4.375720         0.530806         2.584696
 C         3.216912         0.504365         1.551313
 C         1.797605         0.221745         1.975774
 C         1.288506         0.373272         0.479800
 C        -0.201448         0.229517         0.048515
 O         1.769459         1.657096         0.000144
 C         3.206367         1.416539         0.309141
 C         3.449030        -0.037688         0.177959
 O         2.226218        -0.611473        -0.255461
 H         4.015954         1.226767         3.347274
 H         4.383204        -0.431457         3.095174
 H         5.278206         0.783860         2.108931
 H         1.517505        -0.788454         2.148385
 H         1.405272         0.924843         2.689621
 H        -0.500497        -0.812347        -0.276668
 H        -0.716118         0.519719         0.945956
 H        -0.334518         1.057341        -0.702423
 H         3.911466         2.242977        -0.023950
 H         4.435181        -0.334525        -0.208145
