19
Iteration:  3844charge 0 multiplicity 1
 C         4.276261         0.629874         2.648340
 C         3.328279         0.713728         1.501225
 C         1.832415         0.641359         1.887128
 C         1.241307         0.339938         0.452478
 C        -0.207185         0.067413         0.015654
 O         1.911520         1.614952        -0.192689
 C         3.225255         1.331709         0.142727
 C         3.430787        -0.305837         0.376107
 O         2.103573        -0.714856        -0.003577
 H         3.960362         1.285520         3.480771
 H         4.368149        -0.328459         3.123517
 H         5.262470         1.068844         2.500740
 H         1.501830        -0.160616         2.540035
 H         1.492797         1.541169         2.421723
 H        -0.126788        -0.314158        -1.078704
 H        -0.769449        -0.650600         0.769941
 H        -0.803791         1.000240        -0.016169
 H         3.900945         1.972109        -0.384042
 H         4.367323        -0.855777         0.062801
