19
Iteration:   182charge 0 multiplicity 1
 C         4.434601        -0.188786         2.236781
 C         3.354350         0.267928         1.355435
 C         2.183391        -0.566772         1.404608
 C         1.380941         0.259392         0.460081
 C         0.100165        -0.030680        -0.126150
 O         1.405153         1.621858         1.051646
 C         2.833634         1.702307         1.122436
 C         3.367455         0.791302        -0.025301
 O         2.120279         0.400559        -0.652270
 H         4.088714        -0.039814         3.311658
 H         4.680289        -1.273335         2.213194
 H         5.342606         0.498837         2.117338
 H         2.413728        -1.498535         0.922226
 H         1.668625        -0.401974         2.457691
 H        -0.558428        -0.452936         0.681289
 H        -0.347428         0.951707        -0.321286
 H         0.111305        -0.587176        -1.075853
 H         3.153095         2.586679         1.608816
 H         4.089129         1.062397        -0.850083
