19
Iteration:  1573
 C         4.364903         0.450053         2.519928
 C         3.215041         0.403629         1.573252
 C         1.755774         0.107331         1.898198
 C         1.315794         0.329100         0.406384
 C        -0.088309         0.035623         0.085239
 O         1.801418         1.793564         0.176921
 C         3.204693         1.485387         0.439852
 C         3.412281         0.075642         0.182060
 O         2.138560        -0.404472        -0.424399
 H         4.474044         1.200963         3.242047
 H         4.350676        -0.377404         3.293854
 H         5.370112         0.476011         1.883873
 H         1.345718        -0.886220         2.202467
 H         1.259068         0.962394         2.397792
 H        -0.212628        -0.507450        -0.858578
 H        -0.531373        -0.590098         0.970130
 H        -0.629379         1.037109        -0.024366
 H         3.979012         2.287379         0.304603
 H         4.308707        -0.474016        -0.146554
