19
Iteration:  2667charge 0 multiplicity 1
 C         4.336317         0.805670         2.619009
 C         3.241776         0.577372         1.620714
 C         1.734007         0.531528         1.878650
 C         1.287340         0.403050         0.412886
 C        -0.183398         0.262842         0.065615
 O         1.932777         1.531219        -0.238691
 C         3.289395         1.235850         0.146917
 C         3.367091        -0.216679         0.339225
 O         2.128947        -0.841228         0.021440
 H         4.301686         1.877705         2.737742
 H         3.934275         0.375459         3.561934
 H         5.286568         0.359206         2.337706
 H         1.319877        -0.330063         2.466836
 H         1.458587         1.509496         2.335590
 H        -0.744354        -0.033865         0.985814
 H        -0.353669         1.302731        -0.052842
 H        -0.340501        -0.350977        -0.896279
 H         4.006274         1.815651        -0.536557
 H         4.195426        -0.794174         0.106460
