19
Iteration:  1277charge 0 multiplicity 1
 C         4.487232         0.194045         2.544308
 C         3.227003         0.467785         1.605110
 C         1.847549         0.007462         1.884676
 C         1.299330         0.331858         0.419938
 C        -0.148006         0.051173         0.033965
 O         1.632632         1.745115         0.225959
 C         3.098161         1.559284         0.626730
 C         3.428991         0.203349         0.082576
 O         2.218794        -0.267935        -0.542142
 H         4.634625         0.696639         3.433886
 H         4.751056        -0.873872         2.789087
 H         5.389717         0.673705         2.001771
 H         1.725553        -1.034861         2.050472
 H         1.364056         0.618174         2.630643
 H        -0.512621        -0.812887         0.578814
 H        -0.674388         0.883869         0.393785
 H        -0.288366         0.136526        -1.048525
 H         3.640109         2.459800         0.707275
 H         4.373868        -0.161002        -0.282274
