19
Iteration:  4190charge 0 multiplicity 1
 C         4.357973         0.759752         2.528294
 C         3.164151         0.589590         1.671183
 C         1.649398         0.533706         1.832135
 C         1.311268         0.420728         0.355263
 C        -0.129428         0.292002         0.149119
 O         1.912675         1.471589        -0.257772
 C         3.189856         1.278379         0.203758
 C         3.404604        -0.209452         0.368910
 O         2.212021        -0.793409        -0.021239
 H         4.274267         1.397266         3.452548
 H         4.611470        -0.271309         2.890650
 H         5.192010         1.149407         1.925641
 H         1.301237        -0.430622         2.334285
 H         1.261669         1.401409         2.474558
 H        -0.346379         0.046780        -0.860762
 H        -0.508959        -0.573640         0.822082
 H        -0.564101         1.208084         0.550641
 H         3.955326         1.961668         0.035251
 H         4.374088        -0.745783         0.096253
