19
Iteration:  3923charge 0 multiplicity 1
 C         4.338519         0.976255         2.702132
 C         3.323873         0.529412         1.574486
 C         1.853577         0.404351         1.937879
 C         1.328381         0.333328         0.490172
 C        -0.081359         0.294172        -0.047043
 O         1.868434         1.526009        -0.176019
 C         3.221220         1.180086         0.205897
 C         3.277383        -0.264423         0.204983
 O         2.007790        -0.758329        -0.024975
 H         4.196637         2.026898         2.806607
 H         4.051627         0.380064         3.549977
 H         5.401082         0.779088         2.510506
 H         1.551723        -0.491837         2.453970
 H         1.455204         1.330884         2.405104
 H         0.025719         0.645875        -1.028320
 H        -0.372549        -0.787119         0.014293
 H        -0.686399         1.075778         0.455992
 H         3.970150         1.992922        -0.038647
 H         4.162567        -0.709431        -0.168240
