19
Iteration:  1324
 C         4.362762         0.291270         2.599724
 C         3.329953         0.471383         1.542757
 C         1.933495        -0.015018         1.883193
 C         1.298310         0.322297         0.414429
 C        -0.150019         0.151719         0.041824
 O         1.680329         1.768545         0.318666
 C         3.057862         1.549948         0.517835
 C         3.408477         0.188077        -0.005246
 O         2.228018        -0.385826        -0.490977
 H         4.034779         0.586006         3.669651
 H         4.516114        -0.829628         2.687437
 H         5.360281         0.804091         2.614421
 H         1.904988        -1.110180         2.066880
 H         1.378736         0.492185         2.681249
 H        -0.078737        -0.646618        -0.684580
 H        -0.770115        -0.265363         0.881187
 H        -0.557816         1.168965        -0.178442
 H         3.606194         2.507508         0.323687
 H         4.098723        -0.345926        -0.673854
