19
Iteration:  4964charge 0 multiplicity 1
 C         4.313167         0.672024         2.636521
 C         3.306665         0.788363         1.521451
 C         1.745552         0.600462         1.877409
 C         1.248563         0.337288         0.457220
 C        -0.128533         0.267446         0.069236
 O         1.843471         1.406638        -0.223417
 C         3.223531         1.331981         0.161265
 C         3.384002        -0.247838         0.294048
 O         2.160310        -0.770543         0.053169
 H         4.140726         1.128871         3.615158
 H         4.438864        -0.419676         2.768565
 H         5.317735         0.930257         2.265504
 H         1.687575        -0.369566         2.575844
 H         1.242807         1.583373         2.281524
 H        -0.050421         0.500266        -0.968313
 H        -0.457187        -0.780547         0.382696
 H        -0.768486         1.060582         0.421332
 H         3.953513         1.945841        -0.401138
 H         4.235488        -0.781246         0.143998
