19
Iteration:   327
 C         4.536497        -0.140592         2.220434
 C         3.294758         0.269577         1.467351
 C         1.970255        -0.504677         1.467590
 C         1.359839         0.356105         0.329318
 C        -0.022286        -0.052565        -0.008838
 O         1.414238         1.771798         0.940193
 C         2.810558         1.677247         1.142212
 C         3.440353         0.691884         0.024166
 O         2.300565         0.233660        -0.703676
 H         4.488971        -0.063292         3.353032
 H         5.039347        -0.956720         1.812429
 H         5.345973         0.620851         2.000347
 H         2.096609        -1.495772         0.884563
 H         1.378417        -0.415368         2.384471
 H        -0.661007         0.798403        -0.310472
 H        -0.118523        -0.807940        -0.825731
 H        -0.358669        -0.609047         0.882779
 H         3.307455         2.500646         1.578893
 H         4.269677         0.801042        -0.664335
