19
Iteration:  1574
 C         4.371084         0.446237         2.524261
 C         3.214295         0.411544         1.573038
 C         1.756306         0.102753         1.897352
 C         1.300364         0.326195         0.411957
 C        -0.084663         0.040456         0.087002
 O         1.802140         1.797792         0.168391
 C         3.207722         1.490712         0.445428
 C         3.415684         0.078002         0.188085
 O         2.137771        -0.414112        -0.423617
 H         4.494332         1.206429         3.246167
 H         4.334299        -0.394320         3.273126
 H         5.342799         0.458336         1.894731
 H         1.358424        -0.878055         2.205233
 H         1.244229         0.951672         2.368507
 H        -0.229846        -0.484882        -0.881684
 H        -0.525331        -0.618566         0.957382
 H        -0.640406         1.008864        -0.013446
 H         4.014828         2.284403         0.282918
 H         4.314323        -0.428152        -0.209303
