19
Iteration:   935charge 0 multiplicity 1
 C         4.407972         0.145890         2.396115
 C         3.288686         0.235633         1.511669
 C         1.880406        -0.237402         1.785701
 C         1.301200         0.414806         0.482156
 C        -0.074693         0.016032        -0.053458
 O         1.620373         1.764377         0.553812
 C         3.005984         1.635667         0.778013
 C         3.435524         0.392671        -0.034199
 O         2.219747        -0.051406        -0.517682
 H         4.156793         0.570516         3.308114
 H         4.815645        -0.891565         2.401431
 H         5.321615         0.673398         2.012368
 H         2.015661        -1.352067         1.752008
 H         1.345379         0.082836         2.652196
 H        -0.132505         0.465789        -1.024880
 H        -0.040711        -1.062651        -0.035585
 H        -0.936168         0.249883         0.595793
 H         3.655202         2.484861         0.558692
 H         4.324736         0.144462        -0.609725
