19
Iteration:  3945charge 0 multiplicity 1
 C         4.231214         0.835723         2.640553
 C         3.320660         0.510280         1.500711
 C         1.814076         0.550542         1.931798
 C         1.270924         0.438575         0.476999
 C        -0.192791         0.183824        -0.007752
 O         1.941624         1.556520        -0.135685
 C         3.245715         1.308196         0.196929
 C         3.420605        -0.311310         0.253626
 O         2.071401        -0.765192         0.008092
 H         4.126809         1.880365         2.840224
 H         4.032740         0.169179         3.483380
 H         5.286989         0.672524         2.375688
 H         1.630968        -0.378338         2.460519
 H         1.517913         1.443176         2.498747
 H        -0.185086         0.441871        -1.037822
 H        -0.267209        -0.929749         0.139465
 H        -0.959758         0.842639         0.460302
 H         4.001095         1.955708        -0.332610
 H         4.201417        -0.976173        -0.190377
