19
Iteration:  1233charge 0 multiplicity 1
 C         4.372866         0.382531         2.540115
 C         3.264968         0.317669         1.505693
 C         1.921951        -0.136823         1.825162
 C         1.325987         0.360937         0.523762
 C        -0.124161         0.149706         0.020484
 O         1.723835         1.777767         0.384448
 C         3.064418         1.589429         0.602201
 C         3.447332         0.165729        -0.001785
 O         2.129951        -0.317514        -0.525671
 H         4.247848         1.110610         3.293972
 H         4.378596        -0.676034         2.918347
 H         5.420750         0.625924         2.144483
 H         1.968591        -1.192791         1.912616
 H         1.496148         0.277258         2.718558
 H        -0.958527         0.100124         0.718202
 H        -0.364899         0.751044        -0.815687
 H        -0.130482        -0.802995        -0.470580
 H         3.566135         2.523542         0.882987
 H         4.347556        -0.031358        -0.660360
