19
Iteration:  3888charge 0 multiplicity 1
 C         4.324706         0.870813         2.478173
 C         3.177242         0.565111         1.615235
 C         1.738429         0.431084         1.858039
 C         1.277715         0.321970         0.311605
 C        -0.192648         0.316864         0.116398
 O         1.958084         1.527346        -0.195556
 C         3.238033         1.264147         0.260030
 C         3.400076        -0.233154         0.432983
 O         2.188354        -0.772886        -0.069467
 H         4.302235         1.834235         2.999706
 H         4.332829         0.180464         3.310296
 H         5.292373         0.723534         1.986503
 H         1.546449        -0.472456         2.411642
 H         1.108954         1.202007         2.294208
 H        -0.491239         0.298166        -0.969174
 H        -0.749106        -0.582791         0.627530
 H        -0.594890         1.216427         0.623157
 H         4.039913         1.968002         0.296474
 H         4.230519        -0.911458         0.350117
