19
Iteration:  1219
 C         4.409252         0.337484         2.607155
 C         3.374861         0.414166         1.523823
 C         1.942004        -0.215012         1.835953
 C         1.255884         0.338862         0.441013
 C        -0.108894         0.189987         0.018149
 O         1.640759         1.659408         0.364758
 C         3.076001         1.547005         0.590295
 C         3.364775         0.234371        -0.031514
 O         2.186129        -0.236376        -0.489871
 H         4.030944         1.118817         3.301518
 H         4.515622        -0.606236         3.077013
 H         5.384074         0.624938         2.256023
 H         1.805418        -1.324233         1.893189
 H         1.469711         0.258179         2.737917
 H        -0.740117         0.717467         0.755377
 H        -0.122766         0.824326        -0.906527
 H        -0.410202        -0.854100        -0.040595
 H         3.732941         2.409437         0.290023
 H         4.250168        -0.103206        -0.610616
