19
Iteration:  1716
 C         4.381771         0.471552         2.662883
 C         3.310732         0.524935         1.627439
 C         1.826065         0.106273         1.946533
 C         1.336851         0.323764         0.409057
 C        -0.189916         0.284531         0.018005
 O         1.707287         1.656703         0.068925
 C         3.116478         1.452385         0.303237
 C         3.426839         0.038646         0.083106
 O         2.212032        -0.582299        -0.274179
 H         4.406881         1.217855         3.435345
 H         4.363275        -0.487112         3.247867
 H         5.353664         0.640775         2.024536
 H         1.618097        -0.811641         2.522301
 H         1.477858         1.017483         2.445351
 H        -0.758074         0.411465         1.010609
 H        -0.264597         1.056908        -0.776088
 H        -0.522936        -0.658451        -0.356816
 H         3.700682         2.280242         0.102980
 H         4.325702        -0.301105        -0.409784
