19
Iteration:  1921charge 0 multiplicity 1
 C         4.365425         0.449219         2.625880
 C         3.248872         0.608754         1.590252
 C         1.808458         0.391226         1.896716
 C         1.300914         0.302681         0.426162
 C        -0.183969         0.259159         0.050013
 O         1.769900         1.565803        -0.105479
 C         3.148673         1.484323         0.335810
 C         3.432650        -0.027611         0.153275
 O         2.227660        -0.692638        -0.135014
 H         4.551029         1.285498         3.301783
 H         4.198696        -0.241302         3.407907
 H         5.326760         0.153450         2.104507
 H         1.766208        -0.588125         2.443496
 H         1.312033         1.182958         2.507300
 H        -0.603427         1.192363        -0.358900
 H        -0.500261        -0.421255        -0.754014
 H        -0.734934         0.060686         0.950198
 H         3.860323         2.325578         0.053992
 H         4.328357        -0.554775        -0.182461
