19
Iteration:  1462
 C         4.439032         0.314238         2.567757
 C         3.270111         0.405085         1.647739
 C         1.804196         0.151897         1.832586
 C         1.267787         0.458130         0.416252
 C        -0.129896         0.016367         0.083793
 O         1.780331         1.766146         0.151637
 C         3.095654         1.480171         0.539885
 C         3.366617         0.102447         0.114636
 O         2.195321        -0.362108        -0.489270
 H         4.210501         0.872068         3.411558
 H         4.612926        -0.749639         2.807548
 H         5.357931         0.821161         2.106956
 H         1.682123        -0.909465         2.125404
 H         1.339795         0.749076         2.628163
 H        -0.742639        -0.013236         1.007937
 H        -0.731251         0.635221        -0.545661
 H         0.071114        -1.048072        -0.267952
 H         3.777534         2.334475         0.397968
 H         4.364142        -0.295515        -0.140182
