19
Iteration:  3427
 C         4.320951         0.918488         2.576783
 C         3.287234         0.416116         1.649663
 C         1.719893         0.490933         1.866482
 C         1.264206         0.391991         0.377951
 C        -0.228167         0.269356         0.017077
 O         2.010775         1.572834        -0.207474
 C         3.290700         1.231272         0.254711
 C         3.399879        -0.270705         0.356891
 O         2.079199        -0.799031        -0.021878
 H         4.182736         2.033079         2.574280
 H         4.358297         0.258081         3.475007
 H         5.278239         0.986315         2.023629
 H         1.246527        -0.360380         2.434075
 H         1.357564         1.475192         2.279974
 H        -0.608041        -0.370742        -0.730631
 H        -0.462813        -0.213387         0.936208
 H        -0.689738         1.256444         0.084850
 H         3.989551         2.064363        -0.021650
 H         4.175915        -0.914764        -0.014355
