19
Iteration:  1968
 C         4.342239         0.703847         2.646268
 C         3.266822         0.478485         1.613134
 C         1.834422         0.303628         1.923895
 C         1.271399         0.459395         0.430296
 C        -0.201303         0.124905         0.091151
 O         1.941043         1.630161        -0.094118
 C         3.268106         1.353282         0.340620
 C         3.374748        -0.152405         0.178784
 O         2.029363        -0.600381        -0.259247
 H         4.371721         1.688112         3.088497
 H         4.181362         0.074116         3.596414
 H         5.375953         0.427196         2.241344
 H         1.529470        -0.671149         2.354810
 H         1.544038         1.169555         2.569761
 H        -0.955826         0.677830         0.629784
 H        -0.386955         0.372646        -0.942366
 H        -0.348120        -0.976759         0.112145
 H         3.910218         2.145573         0.082814
 H         4.292014        -0.655153        -0.207958
