19
Iteration:  1021charge 0 multiplicity 1
 C         4.401008         0.222563         2.596926
 C         3.332912         0.320901         1.487562
 C         1.961618        -0.214437         1.680866
 C         1.284154         0.298943         0.454701
 C        -0.178136         0.094663         0.032097
 O         1.688509         1.727950         0.590449
 C         3.068861         1.650313         0.584738
 C         3.384919         0.365302         0.020854
 O         2.197369        -0.186874        -0.595190
 H         4.055315         0.721343         3.642911
 H         4.662262        -0.857654         2.738298
 H         5.345430         0.784279         2.359767
 H         1.919668        -1.355958         1.693874
 H         1.339997         0.206443         2.489258
 H        -0.929798         0.204050         0.815211
 H        -0.340048         0.812929        -0.779667
 H        -0.230719        -0.962863        -0.374383
 H         3.710952         2.571945         0.604088
 H         4.144023         0.361413        -0.831829
