19
Iteration:  2288charge 0 multiplicity 1
 C         4.347785         0.870451         2.676221
 C         3.280577         0.438596         1.618740
 C         1.813142         0.516135         1.942586
 C         1.288018         0.416928         0.466371
 C        -0.161690         0.239719         0.059508
 O         1.967462         1.555599        -0.251836
 C         3.230389         1.158969         0.191669
 C         3.336371        -0.268845         0.264581
 O         2.021792        -0.667438        -0.060657
 H         4.322586         1.961376         2.827907
 H         4.325350         0.374734         3.675252
 H         5.316599         0.645609         2.243871
 H         1.450560        -0.329130         2.593122
 H         1.375795         1.494750         2.261816
 H        -0.952792         0.197233         0.849915
 H        -0.402268         0.789234        -0.925082
 H        -0.180820        -0.819310        -0.306462
 H         4.072098         1.858252        -0.180218
 H         4.147847        -0.874179        -0.110362
