19
Iteration:  3919
 C         4.339952         0.977597         2.676004
 C         3.324815         0.535327         1.590244
 C         1.804679         0.430484         1.945983
 C         1.271447         0.329461         0.478560
 C        -0.106955         0.311607        -0.019843
 O         1.915778         1.501244        -0.139678
 C         3.189319         1.179647         0.175739
 C         3.342242        -0.263077         0.229156
 O         2.041660        -0.759993        -0.059604
 H         4.311841         2.097125         2.867669
 H         4.063470         0.377505         3.556635
 H         5.420417         0.835757         2.490303
 H         1.609344        -0.540743         2.429137
 H         1.262756         1.214998         2.497345
 H         0.055848         0.735081        -1.083314
 H        -0.480902        -0.804392         0.073441
 H        -0.770146         1.103910         0.400092
 H         3.968206         1.844420        -0.126140
 H         4.170843        -0.771423        -0.258506
