19
Iteration:  4065charge 0 multiplicity 1
 C         4.284420         0.919916         2.533323
 C         3.279355         0.465025         1.586781
 C         1.670228         0.371888         1.887859
 C         1.292885         0.339195         0.445702
 C        -0.182228         0.259230         0.040244
 O         1.970699         1.590399        -0.139754
 C         3.346671         1.281033         0.210281
 C         3.380339        -0.236881         0.264808
 O         2.082409        -0.761040         0.015301
 H         4.035106         1.888946         2.893271
 H         4.339945         0.265840         3.395676
 H         5.316927         0.927916         2.157015
 H         1.416379        -0.467725         2.497226
 H         1.424169         1.330842         2.296245
 H        -0.432507        -0.019483        -1.006692
 H        -0.650608        -0.478347         0.669106
 H        -0.672561         1.266256         0.133743
 H         4.136495         1.979187         0.012926
 H         4.297827        -0.788580        -0.116459
