19
Iteration:  4463
 C         4.386619         0.706616         2.616989
 C         3.260300         0.685690         1.530591
 C         1.730544         0.521474         1.892853
 C         1.279363         0.398773         0.433836
 C        -0.180412         0.029604         0.087210
 O         1.938790         1.625898        -0.078157
 C         3.289784         1.322261         0.167208
 C         3.365314        -0.187578         0.305790
 O         2.032059        -0.762572        -0.135752
 H         4.662806         1.684214         3.050155
 H         3.888115         0.212677         3.482034
 H         5.267664         0.091566         2.375891
 H         1.452101        -0.309738         2.538412
 H         1.430503         1.490328         2.363935
 H        -0.192086        -0.381892        -0.981998
 H        -0.416558        -0.688415         0.833133
 H        -0.631503         1.028497         0.034939
 H         4.032540         2.022400        -0.056697
 H         4.310223        -0.706667        -0.068056
