19
Iteration:  3499charge 0 multiplicity 1
 C         4.267248         0.623893         2.729716
 C         3.294149         0.689555         1.470233
 C         1.842373         0.642752         1.895583
 C         1.332614         0.397425         0.456491
 C        -0.042311         0.246392        -0.050420
 O         1.812301         1.477841        -0.215039
 C         3.168896         1.321563         0.079806
 C         3.382994        -0.253776         0.276393
 O         2.079834        -0.820599         0.210380
 H         3.944813         1.479828         3.278444
 H         4.250637        -0.327740         3.270768
 H         5.268829         0.960859         2.456389
 H         1.602371        -0.033519         2.701831
 H         1.593365         1.668944         2.144534
 H        -0.013880         0.339142        -1.172169
 H        -0.376545        -0.880202         0.180293
 H        -0.695302         1.049583         0.313025
 H         3.905182         1.928323        -0.522605
 H         4.209980        -0.746545        -0.294953
