19
Iteration:  3817
 C         4.200696         0.626652         2.668834
 C         3.300738         0.695059         1.505282
 C         1.866230         0.645359         1.905931
 C         1.290569         0.355263         0.487944
 C        -0.009491         0.123175        -0.007063
 O         1.887410         1.581351        -0.145333
 C         3.208178         1.277724         0.075715
 C         3.331117        -0.152637         0.167192
 O         2.064202        -0.797545         0.116408
 H         3.758552         1.227350         3.489968
 H         4.317707        -0.372874         3.183393
 H         5.230822         1.034828         2.634173
 H         1.545869        -0.202509         2.549096
 H         1.524301         1.565224         2.421205
 H         0.162902        -0.397365        -0.955789
 H        -0.454897        -0.551571         0.670465
 H        -0.685464         0.989236        -0.108670
 H         3.870354         2.022355        -0.428631
 H         4.165483        -0.726658        -0.071442
