19
Iteration:  2111
 C         4.359376         0.674615         2.620888
 C         3.237211         0.639502         1.616444
 C         1.822497         0.407517         1.928622
 C         1.275872         0.415233         0.363152
 C        -0.201106         0.237585         0.066810
 O         1.880114         1.565697        -0.209609
 C         3.265000         1.359408         0.229926
 C         3.374970        -0.193583         0.276006
 O         2.111146        -0.750035        -0.082068
 H         4.616073         1.555788         3.150989
 H         4.069447        -0.065673         3.439957
 H         5.311370         0.292972         2.276034
 H         1.675750        -0.552451         2.488613
 H         1.370774         1.307631         2.437816
 H        -0.317715        -0.321932        -0.856151
 H        -0.771607        -0.443835         0.776508
 H        -0.617210         1.248298         0.201910
 H         3.929514         2.211941         0.166056
 H         4.185924        -0.789107        -0.078368
