19
Iteration:   534
 C         4.495134         0.065179         2.391899
 C         3.296896         0.179070         1.497685
 C         1.956673        -0.494223         1.576473
 C         1.315306         0.320326         0.412841
 C        -0.116703         0.034108         0.039987
 O         1.572917         1.672910         0.711145
 C         2.915463         1.643747         0.977467
 C         3.460171         0.577919        -0.010193
 O         2.223896         0.249162        -0.689737
 H         4.290023         0.422188         3.457775
 H         4.838191        -0.952091         2.418745
 H         5.294087         0.723770         1.945423
 H         1.906532        -1.541272         1.146544
 H         1.440980        -0.323137         2.501577
 H        -0.636459         0.941822        -0.251057
 H         0.027164        -0.491109        -0.897825
 H        -0.519404        -0.589280         0.796885
 H         3.430551         2.569749         1.197869
 H         4.213583         0.588492        -0.712080
