19
Iteration:  1503charge 0 multiplicity 1
 C         4.324288         0.456515         2.541639
 C         3.227050         0.536328         1.545391
 C         1.919829         0.001555         1.897029
 C         1.289615         0.332513         0.449412
 C        -0.125594         0.284314         0.081816
 O         1.743942         1.642470         0.239007
 C         3.077259         1.499254         0.439011
 C         3.443313         0.095839         0.135391
 O         2.228767        -0.518805        -0.449859
 H         3.898768         0.721044         3.586850
 H         4.409413        -0.627353         2.700123
 H         5.280708         0.915740         2.345668
 H         1.819182        -1.065561         2.094495
 H         1.409757         0.655622         2.635727
 H        -0.749154        -0.562798         0.463202
 H        -0.592270         1.216921         0.203416
 H        -0.110237         0.114412        -0.978920
 H         3.697734         2.395601         0.146028
 H         4.421433        -0.229556        -0.331246
