19
Iteration:   718charge 0 multiplicity 1
 C         4.403258         0.184480         2.527051
 C         3.339643         0.216062         1.454827
 C         2.029099        -0.391776         1.680000
 C         1.298416         0.335089         0.471213
 C        -0.112206         0.056258        -0.031976
 O         1.597101         1.725981         0.743502
 C         3.057685         1.575950         0.857149
 C         3.373078         0.454352        -0.130055
 O         2.161360         0.085296        -0.721046
 H         4.026410         0.701051         3.343150
 H         4.651326        -0.794208         2.962249
 H         5.323180         0.776957         2.255309
 H         2.062359        -1.449509         1.322417
 H         1.592162        -0.287675         2.655714
 H        -0.288897         0.556795        -1.010779
 H        -0.363946        -0.983312        -0.253340
 H        -0.831869         0.526795         0.655208
 H         3.655844         2.429071         1.191133
 H         4.280624         0.389115        -0.843305
