19
Iteration:   621charge 0 multiplicity 1
 C         4.517310        -0.012589         2.357329
 C         3.373191         0.349224         1.454578
 C         1.934064        -0.305516         1.630417
 C         1.267431         0.388998         0.390968
 C        -0.122840        -0.040789        -0.102865
 O         1.538124         1.757178         0.781222
 C         3.021370         1.652234         0.938390
 C         3.360528         0.540787        -0.010725
 O         2.227198         0.043573        -0.609786
 H         4.124450        -0.053581         3.457455
 H         4.837355        -1.051572         2.309382
 H         5.392533         0.734499         2.342054
 H         1.991856        -1.446860         1.579198
 H         1.667605        -0.051083         2.642840
 H        -0.313050        -1.045192         0.324546
 H        -1.074366         0.481370         0.062956
 H        -0.004395        -0.164258        -1.168622
 H         3.607105         2.564497         1.105628
 H         4.221028         0.373051        -0.715355
