19
Iteration:  2325
 C         4.319210         0.862843         2.577075
 C         3.186785         0.653417         1.633698
 C         1.748723         0.413378         1.868952
 C         1.320379         0.202858         0.457561
 C        -0.143966         0.400961         0.087045
 O         2.009282         1.581921        -0.177513
 C         3.213110         1.222176         0.161017
 C         3.372643        -0.256726         0.293610
 O         2.043161        -0.822756        -0.016386
 H         4.420481         1.970204         2.889312
 H         4.342115         0.341956         3.522332
 H         5.303473         0.596848         2.093440
 H         1.548062        -0.521327         2.360772
 H         1.208992         1.312858         2.165213
 H        -0.756596         0.366151         0.991204
 H        -0.278033         1.228444        -0.556918
 H        -0.267828        -0.422219        -0.654628
 H         4.003313         1.824863        -0.126837
 H         4.350575        -0.864364         0.040196
