19
Iteration:   941
 C         4.442089         0.136759         2.365305
 C         3.248909         0.300257         1.521124
 C         1.925080        -0.250316         1.750930
 C         1.258605         0.430187         0.460142
 C        -0.041031        -0.001131        -0.020454
 O         1.634306         1.762112         0.542046
 C         3.014214         1.643583         0.806049
 C         3.430516         0.372935         0.054504
 O         2.189474        -0.071655        -0.581639
 H         4.253413         0.425658         3.504754
 H         4.780442        -0.899060         2.412424
 H         5.236162         0.705765         1.906330
 H         1.826224        -1.333046         1.917554
 H         1.374113         0.261073         2.603544
 H        -0.256099         0.582002        -0.971650
 H         0.034634        -1.086277        -0.303552
 H        -0.862900         0.163598         0.677371
 H         3.632689         2.500086         0.604852
 H         4.369486         0.057739        -0.392465
