19
Iteration:   388charge 0 multiplicity 1
 C         4.486524        -0.013413         2.409275
 C         3.421458         0.280340         1.403812
 C         2.033666        -0.568140         1.410800
 C         1.340474         0.301248         0.490047
 C        -0.054138         0.114096        -0.030420
 O         1.473149         1.616830         1.017249
 C         2.875179         1.701509         0.998335
 C         3.340557         0.685583        -0.102253
 O         2.241534         0.157133        -0.738196
 H         4.163429         0.303030         3.372436
 H         4.682214        -1.139708         2.618116
 H         5.319642         0.655660         2.119451
 H         1.906186        -1.572015         1.025444
 H         1.535189        -0.448660         2.434404
 H        -0.855349        -0.096146         0.675454
 H        -0.168076         0.992682        -0.694204
 H         0.068601        -0.743869        -0.738572
 H         3.392253         2.642394         1.060841
 H         4.105631         1.020249        -0.706171
