19
Iteration:  4753charge 0 multiplicity 1
 C         4.282028         0.691155         2.681887
 C         3.254462         0.642796         1.490734
 C         1.775207         0.473701         1.955707
 C         1.296366         0.257899         0.461312
 C        -0.148751         0.300962         0.031706
 O         1.805243         1.476660        -0.246375
 C         3.266903         1.355055         0.129396
 C         3.449584        -0.110491         0.209400
 O         2.148070        -0.764439         0.142433
 H         3.915625         1.236012         3.543643
 H         4.412053        -0.336772         2.978790
 H         5.267837         1.041184         2.407760
 H         1.834484        -0.503430         2.476319
 H         1.475080         1.400700         2.478072
 H        -0.036217         0.736846        -0.929953
 H        -0.627638        -0.670362        -0.048778
 H        -0.693439         0.967621         0.686229
 H         3.884929         2.051087        -0.546476
 H         4.121724        -0.680957        -0.333617
