19
Iteration:  2032
 C         4.431273         0.646332         2.695134
 C         3.237693         0.590156         1.655922
 C         1.781147         0.326784         1.875432
 C         1.317791         0.350043         0.397097
 C        -0.145046         0.381096         0.069377
 O         1.810428         1.525208        -0.190841
 C         3.126958         1.382213         0.209698
 C         3.421910        -0.118072         0.223816
 O         2.126865        -0.752206        -0.085892
 H         4.257313         1.162997         3.576087
 H         4.716038        -0.350646         2.980772
 H         5.291731         1.084020         2.163132
 H         1.487074        -0.623562         2.377182
 H         1.257197         1.084697         2.502305
 H        -0.709367        -0.299247         0.676087
 H        -0.343062         1.376897         0.316267
 H        -0.301187         0.065128        -0.951275
 H         3.892159         2.110704        -0.079347
 H         4.309365        -0.707965        -0.088504
