19
Iteration:  4896
 C         4.295518         0.828275         2.565806
 C         3.183675         0.607138         1.573165
 C         1.719858         0.443716         1.935752
 C         1.297019         0.313482         0.476786
 C        -0.148148         0.247793         0.128187
 O         1.943961         1.582526        -0.227729
 C         3.258150         1.285904         0.200963
 C         3.385226        -0.259375         0.325304
 O         2.148610        -0.780335        -0.115031
 H         4.234718         1.842711         3.030317
 H         4.358527         0.082477         3.395522
 H         5.265682         0.732530         2.050584
 H         1.620879        -0.502646         2.539532
 H         1.401236         1.409520         2.417016
 H        -0.483778         0.401970        -0.941663
 H        -0.640411        -0.530554         0.598328
 H        -0.617746         1.148138         0.585404
 H         4.072995         1.858131        -0.238534
 H         4.330361        -0.910847         0.137117
