19
Iteration:   622
 C         4.512368        -0.008554         2.342559
 C         3.367543         0.347268         1.474654
 C         1.926491        -0.316717         1.637742
 C         1.270443         0.386883         0.381670
 C        -0.128420        -0.041210        -0.097322
 O         1.546341         1.759019         0.783883
 C         3.024119         1.664130         0.935220
 C         3.357757         0.538538        -0.014640
 O         2.235253         0.044026        -0.614325
 H         4.124069        -0.067837         3.477508
 H         4.810427        -1.024579         2.280899
 H         5.373868         0.723158         2.325361
 H         1.965024        -1.452942         1.577998
 H         1.641617        -0.032542         2.649700
 H        -0.298340        -1.043966         0.300803
 H        -1.078681         0.428165         0.122664
 H         0.006561        -0.149672        -1.165149
 H         3.614406         2.584708         1.094487
 H         4.280202         0.363918        -0.715756
