19
Iteration:  3000
 C         4.312146         0.777848         2.568466
 C         3.167269         0.610859         1.563800
 C         1.740582         0.596336         1.903046
 C         1.276306         0.391416         0.478400
 C        -0.131083         0.109544         0.053751
 O         2.011760         1.579615        -0.143361
 C         3.365369         1.254142         0.181602
 C         3.349512        -0.290937         0.238486
 O         2.045758        -0.719649        -0.022879
 H         4.199903         1.715059         3.138337
 H         4.020141         0.064966         3.314988
 H         5.369884         0.592922         2.330088
 H         1.459621        -0.330073         2.487110
 H         1.340799         1.602861         2.247557
 H        -0.858776         0.034271         0.914549
 H        -0.557924         0.997088        -0.419877
 H        -0.232285        -0.790926        -0.655488
 H         4.102212         1.932134        -0.110904
 H         4.197121        -0.992742         0.127904
