19
Iteration:  2809
 C         4.293038         0.918888         2.560457
 C         3.229225         0.554923         1.592114
 C         1.686324         0.572570         1.958528
 C         1.301527         0.452065         0.482122
 C        -0.043484         0.242194         0.042161
 O         1.950308         1.533851        -0.224296
 C         3.339679         1.079165         0.139709
 C         3.379787        -0.347268         0.303940
 O         2.043078        -0.700894         0.001449
 H         3.899303         1.900107         2.875631
 H         4.007405         0.223152         3.404437
 H         5.348704         0.761103         2.287538
 H         1.445277        -0.324953         2.548626
 H         1.338631         1.553351         2.353938
 H        -0.088613        -0.796649        -0.288551
 H        -0.750044         0.334358         0.912708
 H        -0.476045         0.935812        -0.688678
 H         4.114698         1.685531        -0.223328
 H         3.956323        -1.295508         0.000403
