19
Iteration:  4379charge 0 multiplicity 1
 C         4.324101         0.872254         2.567376
 C         3.185955         0.527225         1.645181
 C         1.750523         0.455278         1.974990
 C         1.266118         0.468454         0.362456
 C        -0.145655         0.228113         0.107457
 O         1.966865         1.525926        -0.181631
 C         3.297808         1.226841         0.270458
 C         3.391085        -0.304311         0.180885
 O         2.084833        -0.682056        -0.107385
 H         3.993056         1.646176         3.250329
 H         4.833771         0.087281         3.099999
 H         5.107385         1.474694         2.085416
 H         1.292615        -0.384994         2.593868
 H         1.445617         1.443193         2.490959
 H        -0.417218        -0.137127        -0.939673
 H        -0.226792        -0.729283         0.572865
 H        -1.010543         0.634504         0.630007
 H         4.099513         1.882720         0.190087
 H         4.136789        -1.129789        -0.095588
