19
Iteration:  3954
 C         4.279076         0.786716         2.606151
 C         3.268039         0.616552         1.522494
 C         1.763982         0.550491         1.895366
 C         1.307461         0.398672         0.482754
 C        -0.225613         0.180171         0.028550
 O         1.960859         1.557415        -0.132584
 C         3.299653         1.186661         0.145758
 C         3.365335        -0.262040         0.301296
 O         2.125360        -0.712428        -0.018511
 H         4.082992         1.766385         3.057058
 H         3.986883         0.073206         3.371318
 H         5.332990         0.595741         2.341707
 H         1.451481        -0.327226         2.419911
 H         1.413820         1.462081         2.376718
 H        -0.289612         0.265218        -1.055250
 H        -0.470674        -0.991072         0.212436
 H        -0.966873         0.781896         0.645194
 H         3.999210         1.988763        -0.215269
 H         4.309048        -0.647172         0.041794
