19
Iteration:  4695
 C         4.352402         0.859083         2.482169
 C         3.186951         0.450938         1.620008
 C         1.703940         0.459113         1.897432
 C         1.248679         0.428113         0.313533
 C        -0.158083         0.144077         0.194699
 O         1.996257         1.594289        -0.142789
 C         3.294837         1.262672         0.373087
 C         3.357427        -0.248031         0.270690
 O         2.126954        -0.673602        -0.127484
 H         4.374302         1.945793         2.776777
 H         4.351911         0.304390         3.458590
 H         5.336898         0.648800         1.956907
 H         1.259565        -0.394284         2.377706
 H         1.368287         1.292015         2.501997
 H        -0.290599         0.079539        -0.893381
 H        -0.428784        -0.943477         0.402754
 H        -0.943412         0.884216         0.399762
 H         3.851829         2.102889         0.049335
 H         4.237429        -0.947053         0.040112
