19
Iteration:   418
 C         4.492924         0.056008         2.362007
 C         3.379806         0.200782         1.450522
 C         2.151886        -0.582042         1.534027
 C         1.309419         0.312607         0.380508
 C        -0.176223         0.079127        -0.105215
 O         1.511341         1.692032         0.869053
 C         2.933524         1.609396         1.088179
 C         3.361052         0.589780        -0.022225
 O         2.169107         0.275602        -0.692570
 H         4.115901         0.271807         3.409968
 H         5.014265        -0.962603         2.275174
 H         5.247304         0.776301         2.143290
 H         2.158532        -1.599886         1.248056
 H         1.721234        -0.236742         2.451532
 H        -0.538996        -0.868828         0.323600
 H        -0.918040         0.853765         0.124750
 H        -0.017193        -0.040683        -1.183938
 H         3.609772         2.444939         1.357885
 H         4.197076         0.708370        -0.644414
