19
Iteration:  1444charge 0 multiplicity 1
 C         4.314969         0.298984         2.490726
 C         3.221679         0.495832         1.568484
 C         1.758994         0.056621         1.935728
 C         1.317046         0.351997         0.431045
 C        -0.139317         0.006957         0.079314
 O         1.750110         1.781517         0.249185
 C         3.225584         1.617627         0.457859
 C         3.464105         0.091604         0.080960
 O         2.184612        -0.373532        -0.424658
 H         4.355108         0.992362         3.386803
 H         4.416780        -0.793642         2.797856
 H         5.332475         0.489894         2.092060
 H         1.638357        -0.997667         2.261063
 H         1.283209         0.714330         2.666164
 H        -0.817622         0.594312         0.702308
 H        -0.169844         0.430808        -1.003727
 H        -0.125038        -1.111434         0.126025
 H         3.859051         2.448159         0.352649
 H         4.228848        -0.329898        -0.534416
