19
Iteration:  3719
 C         4.370892         0.922227         2.780320
 C         3.317079         0.669100         1.563311
 C         1.882863         0.485164         1.926358
 C         1.270671         0.357708         0.512092
 C        -0.125713         0.271965        -0.089055
 O         1.902133         1.509877        -0.078137
 C         3.221172         1.161504         0.133947
 C         3.306511        -0.269701         0.119770
 O         2.008760        -0.806781        -0.017631
 H         4.214354         1.895052         3.242826
 H         4.138687         0.254852         3.647608
 H         5.468172         0.862543         2.750783
 H         1.721482        -0.315238         2.663120
 H         1.289434         1.407715         2.144296
 H        -0.033218         0.514844        -1.219449
 H        -0.509265        -0.776351        -0.077175
 H        -1.036846         0.951306         0.207044
 H         3.999213         1.658604        -0.414929
 H         4.169332        -0.910314        -0.202220
