19
Iteration:   185
 C         4.423345        -0.197861         2.230549
 C         3.375673         0.249674         1.332128
 C         2.181374        -0.563735         1.434553
 C         1.353892         0.256732         0.486572
 C         0.082386        -0.041667        -0.119716
 O         1.411681         1.605866         1.048483
 C         2.834922         1.726558         1.125032
 C         3.380770         0.785260        -0.024119
 O         2.136398         0.419437        -0.675155
 H         3.960066         0.090962         3.320215
 H         4.734130        -1.233957         2.262907
 H         5.358536         0.527447         2.151029
 H         2.385570        -1.545975         0.958335
 H         1.730508        -0.465518         2.443239
 H        -0.623397        -0.584204         0.567321
 H        -0.370229         1.009652        -0.248230
 H         0.106239        -0.466259        -1.164578
 H         3.195616         2.683489         1.606132
 H         4.069375         1.019542        -0.860103
