19
Iteration:  4258
 C         4.224046         0.842562         2.579853
 C         3.281919         0.460812         1.528661
 C         1.808063         0.548405         1.964788
 C         1.290649         0.370186         0.489548
 C        -0.103457         0.103966         0.062561
 O         1.962017         1.636334        -0.114229
 C         3.313023         1.247242         0.163629
 C         3.354606        -0.282234         0.209037
 O         2.024528        -0.685496        -0.050426
 H         4.140709         1.935060         2.899969
 H         3.903038         0.370908         3.555801
 H         5.329342         0.687881         2.380485
 H         1.414215        -0.353778         2.496715
 H         1.738676         1.554887         2.553191
 H        -0.000396        -0.336267        -1.001943
 H        -0.669629        -0.695929         0.494803
 H        -0.778881         0.995992         0.062455
 H         4.039038         2.121949        -0.051997
 H         3.993644        -1.011640        -0.165817
