19
Iteration:  3787
 C         4.399593         0.751453         2.609329
 C         3.243567         0.654864         1.668014
 C         1.757100         0.509106         1.868513
 C         1.265157         0.287882         0.316345
 C        -0.235192         0.251465         0.102754
 O         1.907375         1.465318        -0.285516
 C         3.244699         1.306629         0.261752
 C         3.373538        -0.172893         0.425123
 O         2.159287        -0.724272        -0.092689
 H         4.197196         1.599678         3.310630
 H         4.531187        -0.152450         3.228163
 H         5.364565         0.895190         2.104602
 H         1.396661        -0.389847         2.419636
 H         1.348070         1.433091         2.262731
 H        -0.472727        -0.128417        -1.020875
 H        -0.589544        -0.639541         0.685248
 H        -0.715965         1.257933         0.436228
 H         3.982880         2.000065        -0.182380
 H         4.230247        -0.822359         0.345688
