19
Iteration:   943charge 0 multiplicity 1
 C         4.458654         0.131847         2.365262
 C         3.240292         0.329062         1.524128
 C         1.925192        -0.247659         1.744534
 C         1.257932         0.417630         0.451477
 C        -0.037965        -0.006070        -0.014785
 O         1.635097         1.768829         0.540649
 C         3.022538         1.641674         0.808339
 C         3.423198         0.360151         0.076890
 O         2.185441        -0.079112        -0.601706
 H         4.308644         0.382111         3.491483
 H         4.759317        -0.911034         2.421757
 H         5.214556         0.732176         1.905596
 H         1.753762        -1.337938         1.928917
 H         1.429617         0.291277         2.579012
 H        -0.306495         0.590410        -0.934526
 H         0.051392        -1.038901        -0.376976
 H        -0.845602         0.146508         0.713307
 H         3.603126         2.529155         0.684179
 H         4.334762         0.072708        -0.330301
