19
Iteration:  2171
 C         4.329246         0.883436         2.622524
 C         3.292704         0.477340         1.590311
 C         1.813701         0.431743         1.896865
 C         1.282452         0.449854         0.389800
 C        -0.173611         0.213864         0.073561
 O         1.955426         1.534648        -0.149309
 C         3.316581         1.283279         0.359495
 C         3.321412        -0.275222         0.222817
 O         2.006981        -0.719142        -0.111244
 H         4.039827         1.861471         3.154146
 H         4.393767         0.070517         3.287688
 H         5.297619         0.955020         2.054468
 H         1.437540        -0.410733         2.437158
 H         1.452973         1.293315         2.398879
 H        -0.363286         1.073016        -0.538694
 H        -0.236881        -0.700490        -0.371754
 H        -0.959456         0.372732         0.799481
 H         4.170854         1.793715        -0.236330
 H         4.097465        -0.957036        -0.113487
