19
Iteration:  1205charge 0 multiplicity 1
 C         4.436144         0.345983         2.642421
 C         3.319532         0.364975         1.546544
 C         1.918464        -0.136584         1.739152
 C         1.337212         0.220279         0.436760
 C        -0.205340         0.235575         0.038710
 O         1.615518         1.715626         0.438410
 C         3.053247         1.588907         0.533494
 C         3.473966         0.248935        -0.013525
 O         2.209247        -0.330760        -0.528492
 H         4.211138         0.903714         3.637453
 H         4.581312        -0.670163         3.045713
 H         5.382861         0.656685         2.248206
 H         2.091012        -1.254526         1.806253
 H         1.389391         0.288557         2.626592
 H        -0.577378         1.146590         0.551505
 H        -0.352166         0.347375        -1.075023
 H        -0.878979        -0.643941         0.344080
 H         3.567736         2.507740         0.372950
 H         4.304094         0.136525        -0.629775
