19
Iteration:  4057charge 0 multiplicity 1
 C         4.311802         0.897036         2.622823
 C         3.330977         0.452583         1.555267
 C         1.734729         0.442939         1.960682
 C         1.227206         0.381264         0.487426
 C        -0.198516         0.210132        -0.011408
 O         1.996202         1.565342        -0.143278
 C         3.300655         1.217945         0.165069
 C         3.364522        -0.212374         0.203911
 O         2.076670        -0.729885        -0.000603
 H         3.901971         1.875668         2.942421
 H         4.415694         0.191586         3.480052
 H         5.359852         1.142178         2.399115
 H         1.402128        -0.515612         2.497849
 H         1.521695         1.343532         2.586197
 H        -0.231592        -0.133449        -1.101124
 H        -0.821614        -0.425436         0.548082
 H        -0.706835         1.181391        -0.034911
 H         3.922593         2.098554        -0.086041
 H         4.137063        -0.832628        -0.167248
