19
Iteration:   887charge 0 multiplicity 1
 C         4.395148         0.201699         2.525311
 C         3.308056         0.361849         1.512620
 C         1.953737        -0.396659         1.701631
 C         1.281700         0.264125         0.382017
 C        -0.161961         0.181100         0.112282
 O         1.581255         1.619901         0.595070
 C         2.974149         1.641484         0.666670
 C         3.490889         0.383738        -0.013410
 O         2.300893        -0.035597        -0.668914
 H         4.074186         0.943588         3.369881
 H         4.561048        -0.807389         2.814124
 H         5.345318         0.549327         2.223016
 H         2.061755        -1.482377         1.566773
 H         1.468762        -0.168371         2.702367
 H        -0.527672        -0.348588        -0.787003
 H        -0.695338         0.067278         1.065206
 H        -0.312182         1.249983        -0.091711
 H         3.552100         2.514716         0.950382
 H         4.370575         0.484063        -0.708666
