19
Iteration:  3778charge 0 multiplicity 1
 C         4.416122         0.784498         2.585840
 C         3.158634         0.688697         1.660772
 C         1.681130         0.478276         1.844255
 C         1.353462         0.331340         0.301731
 C        -0.191827         0.222463         0.118341
 O         1.973841         1.502415        -0.233843
 C         3.204812         1.289931         0.278560
 C         3.384060        -0.209756         0.421899
 O         2.131145        -0.792209        -0.117926
 H         4.385708         1.766561         3.101332
 H         4.552621        -0.044191         3.261511
 H         5.220562         0.925683         1.868980
 H         1.477266        -0.445175         2.421598
 H         1.042760         1.283694         2.190836
 H        -0.705792         0.270365        -0.928759
 H        -0.622721        -0.536006         0.837668
 H        -0.547377         1.206418         0.555763
 H         4.025796         1.937923        -0.009573
 H         4.336708        -0.785972         0.352487
