19
Iteration:  1759charge 0 multiplicity 1
 C         4.381752         0.468732         2.579611
 C         3.223325         0.495424         1.560908
 C         1.744972         0.249771         1.926860
 C         1.283014         0.383603         0.421984
 C        -0.215407         0.044603         0.071253
 O         1.878315         1.815299         0.105219
 C         3.148082         1.445505         0.314730
 C         3.435419        -0.063640         0.170451
 O         2.221795        -0.513170        -0.295854
 H         4.382018         1.304749         3.138244
 H         4.042219        -0.276261         3.306603
 H         5.278647         0.164765         1.954766
 H         1.545124        -0.740848         2.398196
 H         1.259428         1.085291         2.456764
 H        -0.325058        -0.662543         0.884266
 H        -0.932976         0.855410         0.103300
 H        -0.067742        -0.440154        -0.838619
 H         3.892855         2.137342         0.043610
 H         4.230811        -0.553958        -0.379703
