19
Iteration:  4207charge 0 multiplicity 1
 C         4.284704         0.786420         2.470372
 C         3.134829         0.669581         1.583343
 C         1.698499         0.359712         1.966938
 C         1.309769         0.210434         0.437455
 C        -0.157955         0.381968         0.153122
 O         1.952414         1.458219        -0.287728
 C         3.299187         1.349676         0.242134
 C         3.436266        -0.219859         0.392428
 O         2.153207        -0.735991        -0.066935
 H         4.078405         1.516654         3.254323
 H         4.626366        -0.047187         3.085129
 H         5.104168         1.131750         1.816947
 H         1.562197        -0.535371         2.521450
 H         1.087407         1.164186         2.198002
 H        -0.520224         0.161238        -0.897133
 H        -0.835859        -0.177917         0.726820
 H        -0.294245         1.462115         0.320319
 H         4.040343         2.113501        -0.173406
 H         4.319920        -0.834277         0.435487
