19
Iteration:  1299charge 0 multiplicity 1
 C         4.354332         0.183502         2.486839
 C         3.300423         0.508467         1.501938
 C         1.843630        -0.041302         1.815733
 C         1.296648         0.305643         0.446124
 C        -0.135623         0.165415         0.053200
 O         1.692994         1.706843         0.295869
 C         3.042608         1.661512         0.523475
 C         3.478832         0.286055         0.107960
 O         2.245891        -0.426919        -0.379528
 H         4.193963         0.572063         3.455148
 H         4.473008        -0.921261         2.624175
 H         5.392659         0.622805         2.274071
 H         1.699258        -1.094701         1.949639
 H         1.463202         0.531613         2.643838
 H        -0.194310        -0.913823        -0.014820
 H        -0.799614         0.467448         0.808973
 H        -0.324191         0.775585        -0.848629
 H         3.558130         2.562034         0.342089
 H         4.261168         0.084761        -0.548047
