19
Iteration:  4904
 C         4.318264         0.829340         2.576296
 C         3.230028         0.594290         1.553060
 C         1.729091         0.529858         1.919854
 C         1.312052         0.335754         0.390424
 C        -0.141773         0.191397         0.166376
 O         1.985761         1.562013        -0.197202
 C         3.263824         1.255089         0.247777
 C         3.314471        -0.240388         0.328114
 O         2.097403        -0.739454        -0.145238
 H         4.165221         1.820017         3.085568
 H         4.345413         0.015935         3.341591
 H         5.307171         0.913189         2.058333
 H         1.593678        -0.324307         2.517358
 H         1.185091         1.314038         2.383188
 H        -0.329308         0.161342        -0.926142
 H        -0.528770        -0.778192         0.535213
 H        -0.638824         0.977917         0.749899
 H         4.084335         1.812667        -0.074751
 H         4.094789        -1.042988         0.184998
