19
Iteration:    35charge 0 multiplicity 1
 C         4.610066        -0.184348         2.098127
 C         3.336039         0.184323         1.411196
 C         2.169851        -0.658977         1.181061
 C         1.335171         0.320388         0.286633
 C        -0.139766        -0.068799         0.036805
 O         1.329995         1.573408         1.058611
 C         2.720197         1.669696         1.313633
 C         3.375104         0.929924         0.176876
 O         2.356573         0.553724        -0.715844
 H         4.512648        -0.123450         3.158637
 H         4.924035        -1.257396         1.851194
 H         5.421486         0.445772         1.825702
 H         2.409267        -1.606172         0.608943
 H         1.665546        -0.879256         2.087303
 H        -0.193758        -1.119654         0.169903
 H        -0.726256         0.417403         0.820850
 H        -0.483942         0.216682        -0.938604
 H         3.079604         2.596071         1.669146
 H         4.428952         0.999899        -0.200361
