19
Iteration:  4315charge 0 multiplicity 1
 C         4.307167         0.609804         2.583261
 C         3.231373         0.701030         1.584056
 C         1.772563         0.506974         1.864452
 C         1.292399         0.310678         0.416105
 C        -0.198708         0.331591         0.129410
 O         1.889107         1.399606        -0.370030
 C         3.175242         1.417445         0.243711
 C         3.417734        -0.100420         0.354824
 O         2.210746        -0.795980         0.075927
 H         4.393662         1.488565         3.305764
 H         4.213454        -0.404816         3.062714
 H         5.317186         0.536681         2.061673
 H         1.417578        -0.286554         2.541904
 H         1.433778         1.441803         2.333521
 H        -0.292649         0.627947        -0.945600
 H        -0.348854        -0.732349         0.171584
 H        -0.863958         0.887226         0.798584
 H         3.754050         2.142181        -0.242558
 H         4.325511        -0.713352         0.072866
