19
Iteration:  2214charge 0 multiplicity 1
 C         4.338160         0.625905         2.640713
 C         3.245343         0.715466         1.584424
 C         1.811074         0.540893         1.841385
 C         1.283770         0.372040         0.385313
 C        -0.176758         0.259498         0.041812
 O         1.895213         1.486704        -0.231857
 C         3.278152         1.301064         0.258405
 C         3.343167        -0.199356         0.278149
 O         2.089632        -0.758689         0.031565
 H         4.120385         1.216175         3.585225
 H         4.523355        -0.368700         2.969606
 H         5.293302         1.039412         2.261058
 H         1.554565        -0.215909         2.531606
 H         1.547225         1.527774         2.095595
 H        -0.673598         1.187669         0.176469
 H        -0.328147        -0.339003        -0.756358
 H        -0.591116        -0.298861         0.852163
 H         4.049582         1.969452        -0.274278
 H         4.188629        -0.779609        -0.034532
