19
Iteration:  4080charge 0 multiplicity 1
 C         4.293207         0.889676         2.521924
 C         3.142371         0.621845         1.620638
 C         1.740755         0.446250         1.839917
 C         1.325860         0.349358         0.328882
 C        -0.095860         0.320158         0.154792
 O         1.938635         1.537411        -0.150545
 C         3.191701         1.226675         0.326232
 C         3.410685        -0.309029         0.369461
 O         2.150464        -0.795827        -0.130606
 H         4.375365         1.993637         2.730161
 H         4.475144         0.217070         3.398165
 H         5.244318         0.721174         1.960683
 H         1.453201        -0.584219         2.269336
 H         1.186633         1.253342         2.398492
 H        -0.377184         0.183492        -0.918955
 H        -0.584534        -0.490763         0.713159
 H        -0.522742         1.272575         0.459932
 H         3.941972         1.965697        -0.077743
 H         4.197805        -0.967980         0.188127
