19
Iteration:  1878
 C         4.343896         0.618326         2.581814
 C         3.266268         0.504381         1.545997
 C         1.768374         0.350996         1.921857
 C         1.314739         0.439232         0.344904
 C        -0.112872         0.084933         0.105720
 O         1.873260         1.747189         0.043335
 C         3.277908         1.323071         0.392963
 C         3.348190        -0.134892         0.175452
 O         2.078539        -0.629755        -0.246861
 H         3.909111         1.139090         3.459902
 H         4.579573        -0.426267         2.954148
 H         5.227549         1.140525         2.050091
 H         1.510746        -0.675890         2.309433
 H         1.268766         1.194600         2.456923
 H        -0.276671         0.321115        -0.974758
 H        -0.365938        -0.978264         0.246124
 H        -0.718444         0.745229         0.669012
 H         3.990075         2.184596         0.166350
 H         4.087820        -0.770203        -0.338172
