19
Iteration:   970charge 0 multiplicity 1
 C         4.559210         0.055880         2.405268
 C         3.245257         0.371253         1.573009
 C         1.798765        -0.160315         1.752738
 C         1.269221         0.341483         0.333641
 C        -0.187275         0.012064         0.025170
 O         1.610358         1.750114         0.491508
 C         2.994673         1.636280         0.795471
 C         3.495943         0.467236         0.043185
 O         2.328083        -0.155494        -0.526185
 H         4.539879         0.198826         3.427294
 H         4.835295        -1.018529         2.316011
 H         5.315718         0.762342         1.957964
 H         1.789499        -1.224057         1.925250
 H         1.045022         0.289742         2.436852
 H        -0.720033         0.932421        -0.103904
 H        -0.377499        -0.556770        -0.889798
 H        -0.631456        -0.366192         0.940131
 H         3.532983         2.569048         0.512354
 H         4.461148         0.220364        -0.532372
