19
Iteration:  3309charge 0 multiplicity 1
 C         4.329634         0.753214         2.611929
 C         3.258403         0.631729         1.596397
 C         1.752750         0.621892         1.888204
 C         1.294198         0.440998         0.407838
 C        -0.266183         0.146882         0.017002
 O         2.027783         1.503628        -0.259376
 C         3.330350         1.241834         0.177640
 C         3.375747        -0.232573         0.326270
 O         2.035842        -0.786198         0.068075
 H         3.924339         1.554309         3.271480
 H         4.627970        -0.127792         3.128090
 H         5.220743         1.256338         2.250843
 H         1.532615        -0.238347         2.589198
 H         1.372643         1.591601         2.311426
 H        -0.595027         0.426789        -0.992416
 H        -0.480457        -0.920287         0.118305
 H        -0.937433         0.797502         0.680640
 H         4.184290         1.937459        -0.198775
 H         4.156046        -1.033713         0.163692
