19
Iteration:  1466charge 0 multiplicity 1
 C         4.452552         0.339339         2.551680
 C         3.298428         0.391903         1.658813
 C         1.781685         0.136129         1.787070
 C         1.265266         0.456602         0.400156
 C        -0.146066         0.015344         0.090710
 O         1.778143         1.749352         0.149122
 C         3.079315         1.482473         0.542125
 C         3.415036         0.099326         0.130713
 O         2.174758        -0.357203        -0.460455
 H         4.194680         0.897202         3.527570
 H         4.612429        -0.759147         2.756540
 H         5.438340         0.786320         2.273401
 H         1.569199        -0.877958         2.159287
 H         1.364838         0.795402         2.556219
 H        -0.639078        -0.032637         1.070228
 H        -0.769288         0.814400        -0.525995
 H         0.126348        -0.965301        -0.369403
 H         3.699447         2.314802         0.444778
 H         4.316572        -0.302254        -0.285290
