19
Iteration:  1048charge 0 multiplicity 1
 C         4.368777         0.372561         2.511295
 C         3.248722         0.218230         1.506098
 C         1.920765        -0.260304         1.732310
 C         1.310508         0.389947         0.418525
 C        -0.100827         0.099264         0.073810
 O         1.654135         1.729069         0.473384
 C         3.098328         1.521701         0.791501
 C         3.427391         0.315842        -0.017012
 O         2.200716        -0.119107        -0.621256
 H         4.200307         1.020974         3.281551
 H         4.590458        -0.692652         2.730193
 H         5.351683         0.742607         2.162641
 H         1.664568        -1.277739         1.763017
 H         1.491248         0.324715         2.548439
 H        -0.431496        -0.588069         0.867793
 H        -0.749872         0.981597         0.067528
 H        -0.077657        -0.419708        -0.867530
 H         3.786412         2.320930         0.854966
 H         4.125536        -0.054908        -0.671172
