19
Iteration:  4414
 C         4.376923         0.783061         2.618810
 C         3.241064         0.699667         1.567960
 C         1.802521         0.398221         1.880312
 C         1.334974         0.290051         0.401580
 C        -0.244376         0.353436         0.052884
 O         1.836622         1.497318        -0.151925
 C         3.188411         1.335442         0.227515
 C         3.423939        -0.215762         0.293278
 O         2.162823        -0.814016        -0.061852
 H         4.302746         1.667300         3.285543
 H         4.278671        -0.072249         3.327392
 H         5.362075         0.709229         2.121606
 H         1.682153        -0.506635         2.491907
 H         1.293701         1.226244         2.357164
 H        -0.496128         0.124122        -0.944248
 H        -0.573802        -0.360183         0.793620
 H        -0.500117         1.385096         0.185201
 H         3.903811         2.048233        -0.225340
 H         4.192772        -0.913868         0.083119
