19
Iteration:  1260charge 0 multiplicity 1
 C         4.517721         0.297620         2.475425
 C         3.240461         0.294958         1.606811
 C         1.733477        -0.022542         1.791121
 C         1.341937         0.393465         0.368615
 C        -0.155724         0.039079         0.058053
 O         1.747349         1.755931         0.398315
 C         3.078374         1.589514         0.576416
 C         3.413172         0.185194         0.100645
 O         2.222285        -0.248767        -0.489555
 H         4.386874         1.050552         3.372637
 H         4.587232        -0.756847         2.779028
 H         5.463715         0.596169         2.062152
 H         1.579653        -1.100871         2.106562
 H         1.093075         0.651345         2.423488
 H        -0.590507        -0.701813         0.766064
 H        -0.906536         0.889043        -0.139354
 H        -0.220360        -0.546839        -0.915277
 H         3.644545         2.491319         0.286867
 H         4.333694        -0.013039        -0.433715
