19
Iteration:   814
 C         4.433115         0.012661         2.365130
 C         3.350704         0.374871         1.478485
 C         1.958868        -0.179094         1.802212
 C         1.266729         0.302562         0.487429
 C        -0.045017        -0.009028        -0.108393
 O         1.580879         1.764727         0.625946
 C         2.991614         1.670077         0.792772
 C         3.420152         0.437298         0.008326
 O         2.190318        -0.071204        -0.583367
 H         4.117176         0.038573         3.409385
 H         4.680010        -1.091222         2.096102
 H         5.356523         0.684957         2.313525
 H         1.871242        -1.295762         1.866840
 H         1.419277         0.317505         2.605116
 H        -0.726677        -0.521635         0.624576
 H        -0.475103         0.957186        -0.396861
 H         0.103151        -0.799629        -0.885257
 H         3.432471         2.626711         1.052061
 H         4.279589         0.685395        -0.700355
