19
Iteration:  4962
 C         4.301933         0.663280         2.647119
 C         3.313682         0.780199         1.505968
 C         1.748519         0.597483         1.864784
 C         1.245837         0.347171         0.466714
 C        -0.118663         0.229308         0.070687
 O         1.855817         1.416525        -0.221648
 C         3.226447         1.336371         0.157382
 C         3.384004        -0.240306         0.307202
 O         2.128603        -0.762308         0.053421
 H         4.129590         1.172077         3.637679
 H         4.495198        -0.440238         2.753855
 H         5.288910         0.970912         2.226797
 H         1.673380        -0.278088         2.594604
 H         1.320024         1.559769         2.269880
 H        -0.092646         0.494498        -1.018337
 H        -0.393128        -0.757070         0.352201
 H        -0.720386         1.050872         0.470334
 H         3.998432         1.980864        -0.382653
 H         4.243546        -0.811491         0.116496
