19
Iteration:  3568
 C         4.261802         0.895516         2.509194
 C         3.181364         0.513636         1.654534
 C         1.691737         0.480820         1.917659
 C         1.306284         0.352571         0.400113
 C        -0.176283         0.311673         0.098502
 O         1.999106         1.476436        -0.273091
 C         3.302664         1.231447         0.290265
 C         3.403456        -0.262736         0.336033
 O         2.137716        -0.742981        -0.039876
 H         4.454908         1.977838         2.672245
 H         4.320836         0.328931         3.484361
 H         5.213113         0.548724         2.040762
 H         1.420765        -0.409296         2.494683
 H         1.266742         1.449826         2.219042
 H        -0.350798         0.345780        -1.008110
 H        -0.647303        -0.619440         0.567902
 H        -0.760788         1.141954         0.646836
 H         3.914413         2.061762         0.002479
 H         4.249750        -0.870804        -0.023523
