19
Iteration:  3869
 C         4.352365         0.750467         2.624246
 C         3.181059         0.603215         1.666222
 C         1.635066         0.486913         1.903400
 C         1.321958         0.386584         0.374049
 C        -0.079738         0.209062         0.139968
 O         1.921972         1.454437        -0.325572
 C         3.273600         1.345281         0.295226
 C         3.385687        -0.215802         0.292830
 O         2.104481        -0.739477        -0.069072
 H         4.459492         1.659026         3.213323
 H         4.610497        -0.089809         3.270423
 H         5.192270         0.980040         1.944180
 H         1.141002        -0.306617         2.464620
 H         1.148597         1.433171         2.280118
 H        -0.267885         0.043389        -0.833579
 H        -0.422149        -0.503400         0.862019
 H        -0.551270         1.142934         0.346247
 H         4.063381         2.004337        -0.171073
 H         4.280256        -0.624149        -0.051270
