19
Iteration:  2688
 C         4.243943         0.795641         2.635911
 C         3.234097         0.628828         1.504167
 C         1.826572         0.685657         1.887670
 C         1.305940         0.347827         0.487036
 C        -0.146441         0.200623         0.052341
 O         1.976527         1.516755        -0.209360
 C         3.293180         1.250759         0.192615
 C         3.356915        -0.393276         0.269862
 O         2.045744        -0.716013         0.028483
 H         4.318179         1.867494         2.994151
 H         3.849281         0.079912         3.390299
 H         5.155434         0.359127         2.204467
 H         1.535287        -0.141617         2.569273
 H         1.483443         1.678759         2.224670
 H        -0.420958        -0.691406         0.732459
 H        -0.818763         1.036971         0.049686
 H        -0.023209        -0.358969        -0.978678
 H         3.974251         2.149707        -0.118334
 H         4.140854        -1.010943         0.037513
