19
Iteration:  4256charge 0 multiplicity 1
 C         4.241480         0.860564         2.601082
 C         3.290349         0.430416         1.533951
 C         1.789234         0.529433         1.965707
 C         1.283638         0.371007         0.497649
 C        -0.101424         0.132375         0.050083
 O         1.962855         1.634459        -0.116731
 C         3.293206         1.241077         0.145380
 C         3.365482        -0.256109         0.200209
 O         2.037117        -0.689437        -0.036736
 H         4.117156         1.890662         2.929635
 H         3.953779         0.417450         3.550345
 H         5.290598         0.708919         2.391122
 H         1.381791        -0.396798         2.471770
 H         1.768921         1.545398         2.538116
 H        -0.045990        -0.330594        -0.939476
 H        -0.707600        -0.708412         0.502049
 H        -0.778192         0.999622         0.021280
 H         4.001135         2.055415        -0.165555
 H         3.997043        -1.032665        -0.205356
