19
Iteration:  3624charge 0 multiplicity 1
 C         4.272171         0.757691         2.584929
 C         3.325857         0.563990         1.503366
 C         1.801082         0.544372         1.966866
 C         1.251824         0.433890         0.484564
 C        -0.129791         0.215847        -0.047741
 O         1.926383         1.504452        -0.241005
 C         3.295438         1.260227         0.235241
 C         3.375038        -0.236968         0.250586
 O         2.049764        -0.737265         0.092394
 H         3.780659         1.604929         3.152648
 H         4.291049        -0.086452         3.297709
 H         5.304370         1.071202         2.331609
 H         1.689531        -0.372788         2.589628
 H         1.441592         1.373143         2.578556
 H        -0.165223        -0.347037        -1.034312
 H        -0.596094        -0.474896         0.620565
 H        -0.709229         1.179753        -0.140189
 H         3.717838         2.162072        -0.163124
 H         4.248974        -0.882199        -0.022603
