19
Iteration:  3493charge 0 multiplicity 1
 C         4.291822         0.642657         2.711872
 C         3.274104         0.682185         1.529408
 C         1.893565         0.650271         1.825286
 C         1.325135         0.409798         0.457174
 C        -0.058091         0.251335        -0.087295
 O         1.791106         1.470225        -0.229587
 C         3.165864         1.307180         0.104890
 C         3.381674        -0.268626         0.271105
 O         2.087623        -0.821749         0.230179
 H         3.977867         1.442815         3.484746
 H         4.265653        -0.327038         3.274924
 H         5.334901         0.967184         2.499118
 H         1.555981        -0.254842         2.397808
 H         1.651786         1.682952         2.199991
 H        -0.048533         0.274641        -1.148176
 H        -0.495430        -0.595308         0.377313
 H        -0.745468         0.984083         0.390349
 H         3.823700         1.909551        -0.432070
 H         4.246830        -0.589570        -0.231293
