19
Iteration:  4809
 C         4.370366         0.757442         2.569095
 C         3.157352         0.516474         1.637057
 C         1.729695         0.567640         1.834142
 C         1.260409         0.389715         0.390310
 C        -0.141911         0.058125         0.144647
 O         2.042796         1.655405        -0.239034
 C         3.262645         1.260111         0.281446
 C         3.324302        -0.206086         0.293468
 O         2.047298        -0.688258        -0.101015
 H         4.284528         1.653242         3.168649
 H         4.428181        -0.071408         3.265201
 H         5.285775         0.770151         2.014218
 H         1.485742        -0.235167         2.599933
 H         1.447601         1.522906         2.387692
 H        -0.200873        -0.502704        -0.813724
 H        -0.159143        -0.693380         0.859643
 H        -0.915299         0.760591         0.450413
 H         4.049335         1.944073         0.307106
 H         4.214838        -0.763498        -0.043680
