19
Iteration:  3936charge 0 multiplicity 1
 C         4.241301         0.875020         2.667186
 C         3.330910         0.495351         1.542339
 C         1.887833         0.460385         1.924645
 C         1.262346         0.440645         0.460184
 C        -0.058839         0.219128        -0.038558
 O         1.855547         1.553642        -0.179833
 C         3.266167         1.338482         0.240442
 C         3.379720        -0.300925         0.200511
 O         1.998294        -0.797594         0.017906
 H         4.175467         1.937297         2.903376
 H         4.079717         0.465219         3.683677
 H         5.297084         0.780813         2.401485
 H         1.625666        -0.343281         2.665855
 H         1.678483         1.406052         2.476744
 H        -0.110941         0.495802        -1.060531
 H        -0.438167        -0.722265         0.065547
 H        -0.845346         0.722641         0.506472
 H         4.069997         1.953894        -0.213739
 H         4.008990        -1.161011        -0.232703
