19
Iteration:  1820
 C         4.311053         0.554985         2.615038
 C         3.277451         0.558830         1.602355
 C         1.803695         0.152736         1.812753
 C         1.309624         0.312002         0.397522
 C        -0.138875         0.342896         0.089817
 O         1.805004         1.602448         0.057931
 C         3.172034         1.476956         0.250070
 C         3.406756        -0.013109         0.150847
 O         2.184596        -0.659331        -0.152956
 H         4.165904         1.224376         3.606354
 H         4.720210        -0.396650         2.945346
 H         5.227119         0.972015         2.174153
 H         1.864731        -0.869999         2.232431
 H         1.212513         0.759575         2.522207
 H        -0.468554        -0.500278        -0.534120
 H        -0.911742         0.257061         0.981371
 H        -0.384174         1.223132        -0.597884
 H         3.776272         2.265482        -0.062107
 H         4.182013        -0.667463        -0.199953
