19
Iteration:  3866
 C         4.344977         0.740783         2.644830
 C         3.204242         0.593038         1.661936
 C         1.666823         0.506770         1.922737
 C         1.297747         0.415495         0.362249
 C        -0.077494         0.190109         0.127467
 O         1.908297         1.431792        -0.312002
 C         3.294795         1.345492         0.255242
 C         3.361846        -0.178206         0.279656
 O         2.101327        -0.726619        -0.063496
 H         4.439049         1.568353         3.364092
 H         4.631346        -0.108506         3.233799
 H         5.201214         0.942087         1.986973
 H         1.201825        -0.234924         2.552960
 H         1.115487         1.417335         2.202491
 H        -0.256941        -0.107181        -0.964177
 H        -0.511979        -0.577604         0.912601
 H        -0.606139         1.137946         0.329546
 H         4.124571         1.950741        -0.090467
 H         4.309551        -0.663091        -0.008361
