19
Iteration:   500
 C         4.473694        -0.132631         2.379273
 C         3.368045         0.308933         1.380603
 C         1.963314        -0.358867         1.597410
 C         1.274544         0.290855         0.428482
 C        -0.055907        -0.000909        -0.110088
 O         1.537716         1.694768         0.932980
 C         2.890776         1.742810         0.898984
 C         3.403895         0.701874        -0.054433
 O         2.250268         0.089995        -0.617818
 H         4.264230        -0.053334         3.475404
 H         4.884319        -1.172012         2.208558
 H         5.409912         0.516075         2.188399
 H         1.970036        -1.505443         1.519359
 H         1.546437        -0.252743         2.608651
 H        -0.131402         0.366300        -1.137660
 H        -0.146629        -1.097968        -0.064157
 H        -0.946613         0.381523         0.384900
 H         3.422390         2.702086         0.863835
 H         4.207306         0.951874        -0.745866
