19
Iteration:  1250
 C         4.419953         0.323632         2.449893
 C         3.247412         0.341160         1.504132
 C         1.803964        -0.053039         1.786682
 C         1.283035         0.396888         0.382492
 C        -0.156743         0.021349         0.018690
 O         1.721086         1.817695         0.452222
 C         3.147275         1.534100         0.648023
 C         3.402652         0.196652         0.020758
 O         2.235997        -0.310440        -0.440492
 H         4.263922         1.056413         3.356860
 H         4.660709        -0.541699         3.045531
 H         5.303564         0.589319         1.915619
 H         1.584240        -1.166296         1.888412
 H         1.270736         0.598255         2.551457
 H        -0.626212        -0.295683         0.979505
 H        -0.724292         0.973606        -0.321930
 H        -0.073154        -0.721803        -0.818808
 H         3.828605         2.410742         0.503183
 H         4.343098        -0.148112        -0.442821
