19
Iteration:  4355
 C         4.355484         0.836758         2.677758
 C         3.316437         0.522163         1.573941
 C         1.834640         0.498112         1.864143
 C         1.265345         0.369144         0.488099
 C        -0.156083         0.113565         0.038358
 O         1.950244         1.615831        -0.162155
 C         3.238103         1.306085         0.142128
 C         3.350920        -0.263001         0.291598
 O         1.996024        -0.722558        -0.038470
 H         3.904098         1.439405         3.437739
 H         4.688110        -0.089029         3.116715
 H         5.228865         1.415759         2.425257
 H         1.325045        -0.237633         2.526406
 H         1.564115         1.549474         2.292019
 H        -0.136730         0.459862        -1.052761
 H        -0.553104        -0.895480         0.020528
 H        -0.962545         0.643184         0.591680
 H         4.120542         1.688385        -0.374387
 H         4.141734        -0.886036        -0.117376
