19
Iteration:  2220charge 0 multiplicity 1
 C         4.381336         0.615365         2.670569
 C         3.257157         0.698782         1.619150
 C         1.798728         0.579242         1.827890
 C         1.286859         0.317723         0.367052
 C        -0.137902         0.294861         0.074753
 O         1.913293         1.441372        -0.285374
 C         3.206580         1.331181         0.247330
 C         3.369772        -0.164206         0.273539
 O         2.059820        -0.757317         0.042304
 H         4.107051         1.182864         3.532312
 H         4.457502        -0.495509         2.964331
 H         5.319219         0.979274         2.264385
 H         1.619299        -0.154016         2.693792
 H         1.320507         1.566183         2.222491
 H        -0.702855         1.267622         0.242184
 H        -0.317970        -0.235530        -1.022554
 H        -0.505032        -0.432320         0.873306
 H         3.924320         2.019476        -0.056134
 H         4.176199        -0.746271        -0.225324
