19
Iteration:  3742
 C         4.314235         0.977691         2.580770
 C         3.254011         0.438050         1.616908
 C         1.805594         0.418467         1.934863
 C         1.236095         0.403626         0.460777
 C        -0.146090         0.266087        -0.059417
 O         1.937871         1.497795        -0.173274
 C         3.264800         1.246199         0.247355
 C         3.403475        -0.307164         0.341382
 O         2.047509        -0.735193        -0.080811
 H         4.200210         2.048259         2.752764
 H         4.350804         0.555768         3.612559
 H         5.343552         0.834667         2.261061
 H         1.674513        -0.492592         2.545625
 H         1.549573         1.300739         2.540887
 H        -0.360290         0.599632        -1.169572
 H        -0.672096        -0.673713         0.151897
 H        -0.681922         1.088114         0.605451
 H         3.923811         2.037305        -0.131847
 H         4.237751        -0.852624        -0.009867
