19
Iteration:  4455charge 0 multiplicity 1
 C         4.323383         0.692284         2.620688
 C         3.305304         0.623010         1.522893
 C         1.851346         0.484295         1.900238
 C         1.291853         0.362703         0.404832
 C        -0.084719         0.117271         0.049584
 O         1.843958         1.600878        -0.147347
 C         3.206132         1.353360         0.206586
 C         3.375043        -0.203672         0.286182
 O         2.052473        -0.705855        -0.037082
 H         4.611477         1.664070         3.011643
 H         3.910162         0.164378         3.473239
 H         5.180351         0.060126         2.384272
 H         1.520765        -0.322562         2.642892
 H         1.437776         1.435200         2.418383
 H        -0.163083        -0.367274        -1.021517
 H        -0.549290        -0.498280         0.854480
 H        -0.714601         1.070844         0.017347
 H         3.861094         2.112183        -0.221471
 H         4.259952        -0.811791         0.062585
