19
Iteration:  4737charge 0 multiplicity 1
 C         4.339432         0.767923         2.679572
 C         3.329927         0.656016         1.576537
 C         1.833623         0.458302         1.893245
 C         1.282267         0.392704         0.500629
 C        -0.207685         0.262562         0.029784
 O         1.872166         1.493943        -0.194644
 C         3.198610         1.318276         0.137699
 C         3.389271        -0.219690         0.261806
 O         2.101957        -0.796720        -0.060818
 H         3.920740         1.510988         3.419613
 H         4.505946        -0.199261         3.243453
 H         5.335234         1.173847         2.340249
 H         1.578760        -0.416145         2.478610
 H         1.385735         1.302223         2.429916
 H        -0.173262         0.666702        -1.038472
 H        -0.527194        -0.827705         0.079363
 H        -0.922555         0.729943         0.755318
 H         3.910556         2.058850        -0.083880
 H         4.333532        -0.817518         0.073391
