19
Iteration:  4254charge 0 multiplicity 1
 C         4.259493         0.877876         2.624695
 C         3.298139         0.405933         1.541020
 C         1.772835         0.508123         1.964624
 C         1.277940         0.377303         0.506415
 C        -0.105990         0.159266         0.035732
 O         1.961546         1.629180        -0.119834
 C         3.272110         1.237269         0.128702
 C         3.375327        -0.231648         0.191933
 O         2.049730        -0.693828        -0.023311
 H         4.090142         1.876051         2.933771
 H         4.018787         0.426019         3.558301
 H         5.270904         0.721422         2.400374
 H         1.371541        -0.404068         2.457643
 H         1.764540         1.474114         2.484639
 H        -0.086059        -0.302613        -0.898609
 H        -0.712351        -0.693689         0.538051
 H        -0.764000         1.006389        -0.018981
 H         3.955225         1.945622        -0.268698
 H         4.034807        -1.048945        -0.245182
