19
Iteration:  3416
 C         4.316866         0.944737         2.588043
 C         3.236817         0.495413         1.605038
 C         1.780300         0.476348         1.927861
 C         1.293748         0.366742         0.390965
 C        -0.222559         0.268344         0.025284
 O         1.975395         1.477394        -0.176819
 C         3.285158         1.195156         0.199033
 C         3.384768        -0.252528         0.269910
 O         2.063396        -0.719567        -0.008012
 H         4.165591         1.993137         2.970570
 H         4.236398         0.476591         3.612127
 H         5.339614         0.658812         2.297902
 H         1.537284        -0.442654         2.512440
 H         1.512760         1.393433         2.516902
 H        -0.287173        -0.155411        -0.951052
 H        -0.902513        -0.177465         0.715792
 H        -0.569900         1.291315        -0.147150
 H         4.191885         1.806197        -0.034580
 H         4.173621        -0.933373        -0.045038
