19
Iteration:  3285charge 0 multiplicity 1
 C         4.302823         0.815058         2.682006
 C         3.322743         0.648910         1.589527
 C         1.812192         0.543864         1.911572
 C         1.349970         0.407659         0.542229
 C        -0.061570         0.334086        -0.008630
 O         1.838467         1.433152        -0.285333
 C         3.145574         1.195508         0.109408
 C         3.401459        -0.286183         0.329979
 O         2.058708        -0.811109         0.032260
 H         3.872148         1.608335         3.408002
 H         4.384223        -0.189929         3.180674
 H         5.304789         1.198156         2.417902
 H         1.409109        -0.261392         2.614963
 H         1.519949         1.601291         2.274120
 H         0.129548         0.571831        -1.041253
 H        -0.651288        -0.642054         0.018174
 H        -0.632604         1.162834         0.340531
 H         3.797910         1.919382        -0.284216
 H         4.151203        -0.864987        -0.184668
