19
Iteration:  4037
 C         4.286178         0.847867         2.731401
 C         3.355623         0.649562         1.593770
 C         1.924062         0.476908         1.928383
 C         1.304214         0.408666         0.492435
 C        -0.067090         0.225319        -0.053431
 O         1.784137         1.533189        -0.160465
 C         3.268460         1.220946         0.204875
 C         3.302222        -0.341384         0.263777
 O         1.982808        -0.708057        -0.095034
 H         4.055199         1.703659         3.454788
 H         4.509680        -0.141660         3.215020
 H         5.334268         1.054052         2.423396
 H         1.832431        -0.433169         2.628307
 H         1.628290         1.463871         2.377198
 H        -0.025881        -0.289612        -1.032959
 H        -0.617372        -0.492147         0.561115
 H        -0.684306         1.051618        -0.366869
 H         4.010722         1.824672        -0.391799
 H         4.111870        -0.823638        -0.146436
