19
Iteration:   776charge 0 multiplicity 1
 C         4.492223         0.000949         2.351737
 C         3.282522         0.407613         1.601105
 C         1.887177        -0.354479         1.699751
 C         1.342182         0.241601         0.446007
 C        -0.145170         0.105395         0.013627
 O         1.577005         1.685657         0.534681
 C         2.914722         1.755068         0.759770
 C         3.468200         0.512887         0.098854
 O         2.286472        -0.015222        -0.608893
 H         4.346531         0.188163         3.457303
 H         4.768606        -0.991839         2.172700
 H         5.368159         0.508859         2.020419
 H         1.982243        -1.426847         1.574170
 H         1.398994        -0.167111         2.678955
 H        -0.715949         0.815231         0.590032
 H        -0.283628         0.180974        -1.061874
 H        -0.530021        -0.903236         0.177950
 H         3.548306         2.599023         0.978495
 H         4.310053         0.454078        -0.475684
