19
Iteration:  3108
 C         4.336951         0.868083         2.583823
 C         3.214416         0.507793         1.567461
 C         1.800729         0.531717         1.978622
 C         1.302938         0.384394         0.465436
 C        -0.193575         0.243081         0.054285
 O         1.992592         1.483947        -0.250742
 C         3.299219         1.248714         0.296732
 C         3.325109        -0.325171         0.284684
 O         2.044546        -0.659083        -0.103231
 H         3.766758         1.553212         3.192555
 H         4.573847         0.033834         3.227552
 H         5.224009         1.380162         2.205201
 H         1.309334        -0.341631         2.482161
 H         1.336991         1.415682         2.502367
 H        -0.514053        -0.582980         0.729029
 H        -0.647359         1.221940         0.122341
 H        -0.227467        -0.166836        -0.977534
 H         4.255649         1.615494        -0.060019
 H         4.218717        -0.858165         0.029076
