19
Iteration:  1201charge 0 multiplicity 1
 C         4.419247         0.353588         2.642850
 C         3.320684         0.388058         1.524924
 C         1.933456        -0.148844         1.760618
 C         1.306005         0.220191         0.398153
 C        -0.227110         0.239492         0.059372
 O         1.642616         1.725631         0.451137
 C         3.026131         1.605204         0.537647
 C         3.478991         0.231923        -0.001654
 O         2.226802        -0.358895        -0.539624
 H         4.197970         0.792294         3.579710
 H         4.639948        -0.715507         3.023914
 H         5.439092         0.622556         2.183913
 H         1.996657        -1.214144         1.808392
 H         1.333586         0.305615         2.526149
 H        -0.609850         1.212682         0.397931
 H        -0.279152         0.284591        -1.003076
 H        -0.758620        -0.602495         0.488103
 H         3.526529         2.594527         0.554510
 H         4.427564         0.169496        -0.637322
