19
Iteration:   178
 C         4.461336        -0.170132         2.256466
 C         3.344216         0.291671         1.388025
 C         2.159724        -0.567046         1.387846
 C         1.392675         0.271577         0.427427
 C         0.083414        -0.022008        -0.119207
 O         1.402660         1.636042         1.057131
 C         2.827020         1.663122         1.119606
 C         3.352655         0.819163        -0.047536
 O         2.132054         0.379737        -0.641436
 H         4.252001        -0.181183         3.280069
 H         4.636071        -1.260483         2.088385
 H         5.320608         0.377233         2.091086
 H         2.399370        -1.563019         0.949286
 H         1.683623        -0.488143         2.320240
 H        -0.498732        -0.338251         0.725272
 H        -0.346324         0.907843        -0.450077
 H         0.132675        -0.757651        -0.918435
 H         3.194385         2.563647         1.618300
 H         4.119806         1.075706        -0.716285
