19
Iteration:  1263charge 0 multiplicity 1
 C         4.527373         0.276759         2.498175
 C         3.265823         0.322941         1.642457
 C         1.727602        -0.015204         1.798297
 C         1.307123         0.374148         0.382636
 C        -0.145852         0.046406         0.052798
 O         1.733520         1.743916         0.365760
 C         3.070357         1.591330         0.562489
 C         3.431792         0.194518         0.130642
 O         2.210550        -0.243472        -0.528804
 H         4.374164         0.970899         3.351091
 H         4.636774        -0.749899         2.736521
 H         5.430309         0.569498         1.964760
 H         1.554699        -1.064806         2.119244
 H         1.149914         0.657019         2.502130
 H        -0.544426        -0.764813         0.710777
 H        -0.875560         0.913791         0.001271
 H        -0.199938        -0.490868        -0.877556
 H         3.687251         2.517660         0.351196
 H         4.387643        -0.054983        -0.488503
