19
Iteration:  3871charge 0 multiplicity 1
 C         4.359713         0.759629         2.605689
 C         3.163871         0.609952         1.667272
 C         1.617077         0.480996         1.886038
 C         1.343108         0.364117         0.385332
 C        -0.085457         0.224416         0.154013
 O         1.934159         1.474767        -0.330304
 C         3.254713         1.339104         0.317553
 C         3.397106        -0.234528         0.309820
 O         2.110439        -0.748809        -0.072974
 H         4.426386         1.741423         3.130340
 H         4.587960        -0.101157         3.292760
 H         5.205233         0.975887         1.917779
 H         1.128409        -0.388119         2.407285
 H         1.205824         1.429126         2.326945
 H        -0.311517         0.095608        -0.868916
 H        -0.383639        -0.479665         0.816142
 H        -0.539784         1.184849         0.374599
 H         3.980375         2.022425        -0.195278
 H         4.303658        -0.653454        -0.094441
