19
Iteration:  2671charge 0 multiplicity 1
 C         4.286959         0.784510         2.587338
 C         3.264584         0.589165         1.594370
 C         1.730617         0.551837         1.865156
 C         1.291388         0.434828         0.422762
 C        -0.181368         0.216855         0.071548
 O         1.935121         1.529848        -0.213863
 C         3.317846         1.243193         0.139213
 C         3.388304        -0.200460         0.338247
 O         2.093776        -0.865724         0.022509
 H         4.288840         1.860485         2.775268
 H         3.969020         0.395774         3.567259
 H         5.282555         0.384357         2.397412
 H         1.413375        -0.243057         2.559506
 H         1.460052         1.534149         2.292522
 H        -0.770762        -0.057200         0.910486
 H        -0.442947         1.323174        -0.037239
 H        -0.225951        -0.265727        -0.849707
 H         4.073378         1.874873        -0.296603
 H         4.230225        -0.906885         0.083635
