19
Iteration:  4663charge 0 multiplicity 1
 C         4.393857         0.740809         2.665739
 C         3.328393         0.670040         1.597913
 C         1.750046         0.413408         1.918883
 C         1.292063         0.265293         0.460821
 C        -0.169878         0.248248         0.040541
 O         1.838434         1.531191        -0.120878
 C         3.203554         1.336793         0.124278
 C         3.359509        -0.144800         0.225543
 O         2.121641        -0.730069        -0.071238
 H         4.665476         1.747690         3.004003
 H         4.065455         0.060184         3.468506
 H         5.308751         0.218922         2.314634
 H         1.654887        -0.502126         2.513625
 H         1.297100         1.214818         2.486110
 H         0.178001        -0.014951        -0.900232
 H        -0.924976        -0.417655         0.538925
 H        -0.569105         1.274263         0.057734
 H         3.781743         2.091091        -0.332083
 H         4.207307        -0.872865         0.083646
