19
Iteration:  1905charge 0 multiplicity 1
 C         4.417740         0.486990         2.623129
 C         3.291529         0.588266         1.567880
 C         1.734622         0.311864         1.932442
 C         1.274990         0.391179         0.450651
 C        -0.198746         0.162421         0.056685
 O         1.820350         1.586819        -0.092092
 C         3.225273         1.398979         0.280931
 C         3.453077        -0.038916         0.261196
 O         2.146012        -0.557165        -0.177784
 H         4.345899         1.418416         3.245930
 H         4.113035        -0.519341         2.972760
 H         5.396195         0.463308         2.192781
 H         1.421589        -0.651037         2.292184
 H         1.295917         1.158363         2.445531
 H        -0.259641         1.023275        -0.629839
 H        -0.290356        -0.861167        -0.380196
 H        -0.941628         0.212632         0.917712
 H         3.757909         2.246679        -0.000630
 H         4.238058        -0.590434        -0.245737
