19
Iteration:   492
 C         4.500680        -0.183122         2.376401
 C         3.379577         0.320809         1.459132
 C         1.977784        -0.439301         1.583239
 C         1.314901         0.324875         0.484326
 C        -0.062518         0.004834        -0.096530
 O         1.493395         1.686853         0.829769
 C         2.892106         1.731849         0.876839
 C         3.388475         0.717707        -0.056678
 O         2.229813         0.132867        -0.597824
 H         4.321810        -0.073518         3.490468
 H         4.826251        -1.091599         2.057757
 H         5.321999         0.465200         2.159893
 H         2.198777        -1.518018         1.555623
 H         1.630512        -0.005232         2.499195
 H         0.023073         0.103446        -1.192868
 H        -0.271015        -1.039479         0.100776
 H        -0.837359         0.677581         0.255017
 H         3.209487         2.758608         1.067673
 H         4.219020         0.891220        -0.640221
