19
Iteration:  1434
 C         4.377088         0.295263         2.504229
 C         3.283788         0.496718         1.522375
 C         1.797409         0.068027         1.817332
 C         1.295940         0.316105         0.475277
 C        -0.076397         0.080688         0.030251
 O         1.763788         1.745484         0.284262
 C         3.095815         1.535611         0.466762
 C         3.449796         0.159042         0.061035
 O         2.183385        -0.368576        -0.340517
 H         4.128301         0.952805         3.421637
 H         4.095294        -0.701318         2.893303
 H         5.350925         0.388676         2.039432
 H         1.760211        -0.955535         2.216153
 H         1.327834         0.770299         2.514673
 H        -0.802794         0.727261         0.516218
 H        -0.307347         0.122191        -1.101476
 H        -0.461976        -0.900824         0.355264
 H         3.644089         2.420565         0.395228
 H         4.349694        -0.272864        -0.307799
