19
Iteration:  3363
 C         4.299658         0.745061         2.621816
 C         3.258056         0.572717         1.552192
 C         1.713040         0.624252         1.853068
 C         1.269741         0.413581         0.470465
 C        -0.232419         0.232249         0.059764
 O         1.952343         1.460267        -0.310441
 C         3.249888         1.285911         0.216176
 C         3.446277        -0.233106         0.316243
 O         2.149927        -0.770125         0.058274
 H         4.514987         1.767008         3.121851
 H         4.132386        -0.035094         3.390896
 H         5.310619         0.442919         2.288025
 H         1.455503        -0.134910         2.657547
 H         1.336631         1.576598         2.342054
 H        -0.377114         0.298834        -1.022004
 H        -0.526797        -0.772109         0.313823
 H        -0.921773         1.023174         0.510905
 H         4.124048         2.029158         0.035784
 H         4.185794        -0.955758        -0.118170
