19
Iteration:  2107charge 0 multiplicity 1
 C         4.378747         0.670407         2.643583
 C         3.243594         0.591884         1.613428
 C         1.798395         0.439591         1.912532
 C         1.289634         0.412757         0.372305
 C        -0.233275         0.209314         0.066598
 O         1.867800         1.594717        -0.212784
 C         3.260426         1.324238         0.248225
 C         3.400869        -0.182193         0.256948
 O         2.122323        -0.720867        -0.073133
 H         4.579424         1.587507         3.259789
 H         4.092105        -0.051488         3.352123
 H         5.337778         0.258593         2.222746
 H         1.588916        -0.468412         2.503288
 H         1.438874         1.317798         2.480162
 H        -0.361795        -0.400916        -0.839197
 H        -0.677471        -0.399683         0.830043
 H        -0.751933         1.221649         0.037067
 H         3.963987         2.211587        -0.000772
 H         4.206015        -0.871525        -0.073536
