19
Iteration:  4832charge 0 multiplicity 1
 C         4.332476         0.811221         2.561210
 C         3.240650         0.525344         1.540759
 C         1.754079         0.490291         1.876624
 C         1.275006         0.420635         0.468021
 C        -0.149381         0.139340         0.045433
 O         1.914925         1.575773        -0.084112
 C         3.299020         1.254630         0.213078
 C         3.349408        -0.301657         0.300016
 O         2.111593        -0.637598        -0.088956
 H         4.245978         1.867855         2.769394
 H         4.146742         0.294136         3.496077
 H         5.323330         0.621928         2.205933
 H         1.341214        -0.453488         2.423193
 H         1.350528         1.397288         2.479301
 H        -0.136009        -0.477474        -0.903535
 H        -0.564917        -0.434517         0.802287
 H        -0.640631         1.113120         0.186134
 H         3.953088         1.919934        -0.277460
 H         4.261335        -0.960984         0.091715
