19
Iteration:  3697charge 0 multiplicity 1
 C         4.205053         0.735425         2.627508
 C         3.287541         0.641568         1.477425
 C         1.810564         0.590333         1.970693
 C         1.344424         0.361837         0.447731
 C        -0.089840         0.207842         0.026175
 O         1.872983         1.529750        -0.196577
 C         3.265906         1.275599         0.113435
 C         3.389273        -0.239773         0.328686
 O         2.083565        -0.771060         0.050827
 H         4.103164         1.653181         3.196603
 H         4.117884        -0.095973         3.350949
 H         5.279058         0.754519         2.342692
 H         1.503261        -0.327201         2.456335
 H         1.419825         1.488811         2.494160
 H        -0.143748         0.400253        -1.085946
 H        -0.532088        -0.818511         0.174892
 H        -0.821617         0.979505         0.447340
 H         4.012710         1.924064        -0.307463
 H         4.122287        -0.998586        -0.069419
