19
Iteration:  1745charge 0 multiplicity 1
 C         4.292780         0.436660         2.573871
 C         3.284098         0.564752         1.566360
 C         1.876020         0.219633         1.877270
 C         1.295475         0.412689         0.414859
 C        -0.161452         0.090347         0.065773
 O         1.774484         1.681334         0.051168
 C         3.231845         1.493405         0.395397
 C         3.413553        -0.023742         0.154898
 O         2.131479        -0.521610        -0.261106
 H         4.595892         1.365062         3.090407
 H         4.143865        -0.399784         3.245822
 H         5.323619         0.236525         2.198132
 H         1.739381        -0.837592         2.257041
 H         1.468616         0.939191         2.638474
 H        -0.721303        -0.374725         0.835165
 H        -0.752342         1.002492        -0.299371
 H        -0.321692        -0.638845        -0.743834
 H         3.841282         2.369431         0.247325
 H         4.315224        -0.550201        -0.126673
