19
Iteration:    79charge 0 multiplicity 1
 C         4.629350        -0.205095         2.317276
 C         3.492802         0.175757         1.278492
 C         2.206763        -0.632540         1.388298
 C         1.281887         0.276602         0.448348
 C        -0.085847         0.003283        -0.256349
 O         1.387064         1.583074         1.141743
 C         2.827963         1.646844         1.219519
 C         3.301593         0.917124        -0.021978
 O         2.120433         0.499384        -0.688558
 H         4.146224        -0.172158         3.251250
 H         5.214760        -1.151431         2.211754
 H         5.339402         0.564092         2.350564
 H         2.291598        -1.689858         0.987966
 H         1.871553        -0.714254         2.380362
 H         0.072969        -0.028262        -1.303055
 H        -0.426397        -0.979816         0.068947
 H        -0.795434         0.771559        -0.026044
 H         3.219475         2.540507         1.722189
 H         3.992532         1.380594        -0.786213
