19
Iteration:  3953
 C         4.275464         0.793361         2.610115
 C         3.274546         0.602265         1.513139
 C         1.767324         0.554779         1.900871
 C         1.307987         0.402251         0.487844
 C        -0.231650         0.181916         0.024990
 O         1.963288         1.558262        -0.130185
 C         3.291798         1.197841         0.151146
 C         3.370814        -0.272380         0.295782
 O         2.123035        -0.716093        -0.013962
 H         4.057305         1.803142         3.023060
 H         3.983688         0.070380         3.372867
 H         5.327380         0.584550         2.347843
 H         1.468021        -0.347612         2.401220
 H         1.429606         1.465240         2.392834
 H        -0.270925         0.271490        -1.080028
 H        -0.430485        -0.997205         0.190694
 H        -0.964433         0.792645         0.625424
 H         3.972021         1.987248        -0.228907
 H         4.295107        -0.650801         0.022222
