19
Iteration:    53
 C         4.517494        -0.177587         2.150568
 C         3.301536         0.268526         1.423266
 C         2.068641        -0.660964         1.307448
 C         1.371500         0.297606         0.364897
 C        -0.014810        -0.077767        -0.044037
 O         1.382279         1.491957         1.164781
 C         2.806367         1.643060         1.235785
 C         3.436686         0.978195        -0.026373
 O         2.273999         0.552215        -0.749270
 H         4.369493        -0.130389         3.270642
 H         4.793257        -1.125297         1.832312
 H         5.447336         0.424320         1.885602
 H         2.267028        -1.631107         0.935506
 H         1.474473        -0.876168         2.233267
 H        -0.139038        -1.003418        -0.699318
 H        -0.508777        -0.219874         0.947626
 H        -0.459092         0.801878        -0.611748
 H         3.094951         2.479358         1.855694
 H         4.216522         1.347726        -0.646045
