19
Iteration:  2458
 C         4.342828         0.905952         2.602589
 C         3.230833         0.638403         1.576831
 C         1.770560         0.521179         1.944735
 C         1.278646         0.350156         0.401185
 C        -0.204302         0.370019         0.003721
 O         1.961432         1.477003        -0.195185
 C         3.249328         1.131157         0.178583
 C         3.390043        -0.348327         0.403263
 O         2.107903        -0.788674        -0.070787
 H         4.321564         1.994361         2.832066
 H         4.266959         0.338488         3.584086
 H         5.348990         0.733850         2.166234
 H         1.510391        -0.347181         2.581846
 H         1.242427         1.415823         2.348248
 H        -0.691817        -0.596758        -0.127822
 H        -0.701369         0.780979         0.957890
 H        -0.480279         0.999665        -0.819433
 H         4.031773         1.725687        -0.327655
 H         4.268613        -0.916846         0.291953
