19
Iteration:  1395charge 0 multiplicity 1
 C         4.471615         0.382737         2.592742
 C         3.285013         0.452973         1.562169
 C         1.855909        -0.075920         1.870059
 C         1.272404         0.286112         0.453692
 C        -0.222263         0.220493         0.006341
 O         1.718160         1.659523         0.237056
 C         3.045145         1.534804         0.503565
 C         3.439048         0.180983         0.037993
 O         2.219777        -0.352647        -0.416749
 H         4.445283         1.122868         3.372051
 H         4.463837        -0.573448         3.093682
 H         5.521177         0.499293         2.250401
 H         1.723052        -1.151506         2.028058
 H         1.314760         0.459784         2.691524
 H        -0.333538         1.179463        -0.537756
 H        -0.308699        -0.499361        -0.755256
 H        -0.815350         0.020781         0.882481
 H         3.737088         2.402645         0.448729
 H         4.395600        -0.163805        -0.350942
