19
Iteration:  3157charge 0 multiplicity 1
 C         4.346786         0.723644         2.667526
 C         3.250382         0.656593         1.555505
 C         1.763625         0.549852         1.958499
 C         1.319449         0.348502         0.442202
 C        -0.201905         0.265521         0.056598
 O         1.928155         1.418705        -0.324850
 C         3.272320         1.329997         0.172300
 C         3.362813        -0.247161         0.339933
 O         2.089537        -0.731315        -0.005704
 H         4.240497         1.551442         3.395460
 H         4.427500        -0.265418         3.163668
 H         5.286182         0.875781         2.119501
 H         1.482529        -0.330453         2.550794
 H         1.419487         1.438588         2.484833
 H        -0.523049        -0.741949        -0.249067
 H        -0.939514         0.769648         0.754976
 H        -0.264676         0.856547        -0.904323
 H         3.903097         2.165515        -0.042175
 H         4.243160        -0.872741         0.265877
