19
Iteration:  2793
 C         4.271318         0.939099         2.658267
 C         3.303869         0.534696         1.537302
 C         1.855915         0.536708         1.913121
 C         1.278132         0.422102         0.448337
 C        -0.233534         0.218823        -0.007778
 O         2.065670         1.554748        -0.239733
 C         3.306933         1.215281         0.189110
 C         3.299564        -0.369597         0.328469
 O         1.956390        -0.791724         0.040753
 H         4.076849         1.964972         3.056283
 H         4.482487         0.231390         3.435380
 H         5.199152         1.106628         2.042626
 H         1.488469        -0.309709         2.502607
 H         1.544850         1.439908         2.446352
 H        -0.315557        -0.764732        -0.484614
 H        -0.963968         0.321096         0.784637
 H        -0.258569         0.950500        -0.809258
 H         4.195345         1.833428        -0.132851
 H         4.129495        -0.979949         0.108117
