19
Iteration:   118charge 0 multiplicity 1
 C         4.555740        -0.064613         2.140898
 C         3.261331         0.167538         1.489414
 C         2.030822        -0.709381         1.342992
 C         1.377956         0.298349         0.315051
 C         0.005332         0.068976        -0.002384
 O         1.465273         1.566435         0.991734
 C         2.795034         1.657427         1.284305
 C         3.351065         0.866871         0.062174
 O         2.262747         0.397236        -0.780376
 H         4.379326        -0.233772         3.285176
 H         5.226854        -0.796237         1.677055
 H         5.152214         0.956322         2.093273
 H         2.308407        -1.662556         0.906746
 H         1.362914        -0.892378         2.265698
 H        -0.508233         1.093073        -0.114451
 H        -0.173242        -0.605865        -0.874384
 H        -0.454973        -0.393988         0.924537
 H         3.122053         2.523382         1.796745
 H         4.314423         1.188873        -0.348463
