19
Iteration:  4278
 C         4.331247         0.736476         2.608905
 C         3.244381         0.639102         1.575531
 C         1.752302         0.563984         1.859237
 C         1.283850         0.446239         0.417838
 C        -0.129545         0.118990         0.096877
 O         1.945429         1.549367        -0.152349
 C         3.265414         1.283357         0.249637
 C         3.339213        -0.274340         0.350762
 O         2.079337        -0.699747        -0.143353
 H         4.493129         1.719753         3.009681
 H         4.103764         0.179742         3.504425
 H         5.225920         0.352506         2.148557
 H         1.664582        -0.256246         2.611314
 H         1.299605         1.589431         2.108680
 H        -0.372086        -0.220814        -0.909287
 H        -0.204094        -0.828990         0.671771
 H        -0.955363         0.752440         0.467541
 H         4.039576         1.797563        -0.364489
 H         4.184973        -0.865360         0.140603
