19
Iteration:  3752
 C         4.284857         0.932191         2.476448
 C         3.170599         0.506511         1.602192
 C         1.708571         0.370713         1.910191
 C         1.342006         0.390946         0.423712
 C        -0.142175         0.318290         0.063904
 O         1.973883         1.500728        -0.163583
 C         3.252781         1.212201         0.266670
 C         3.406359        -0.249737         0.338595
 O         2.130587        -0.726441        -0.045679
 H         4.138838         2.012144         2.577205
 H         4.315619         0.481954         3.495738
 H         5.251808         0.805453         1.961301
 H         1.305106        -0.543142         2.366525
 H         1.236554         1.246634         2.393603
 H        -0.225318         0.475978        -1.069594
 H        -0.491706        -0.689091         0.323865
 H        -0.844986         1.058593         0.572550
 H         4.077381         1.891611         0.073253
 H         4.212561        -0.934767         0.240693
