19
Iteration:  3089charge 0 multiplicity 1
 C         4.320343         0.833043         2.710108
 C         3.299681         0.597637         1.612591
 C         1.824454         0.442367         1.894659
 C         1.246589         0.414043         0.445300
 C        -0.170201         0.283649         0.000271
 O         1.922716         1.529033        -0.202365
 C         3.261417         1.232897         0.139113
 C         3.410304        -0.260074         0.277704
 O         2.016534        -0.782002        -0.018314
 H         4.118005         1.732718         3.349536
 H         4.422289         0.007470         3.403071
 H         5.276294         0.947811         2.215709
 H         1.698674        -0.472349         2.551701
 H         1.442632         1.351739         2.478772
 H        -0.763796        -0.194652         0.844388
 H        -0.463451         1.368530        -0.273016
 H        -0.122923        -0.340190        -0.911890
 H         3.885809         2.072756        -0.323501
 H         4.084090        -0.979946        -0.194983
