19
Iteration:  3103
 C         4.323280         0.870183         2.616679
 C         3.264325         0.527270         1.563615
 C         1.803977         0.505752         1.998691
 C         1.319380         0.376532         0.462455
 C        -0.177624         0.240849         0.042416
 O         1.998690         1.462954        -0.255409
 C         3.290727         1.231175         0.274372
 C         3.274568        -0.276309         0.283036
 O         2.036452        -0.663552        -0.088388
 H         3.832338         1.675234         3.225718
 H         4.523651        -0.053484         3.229172
 H         5.275408         1.315028         2.252794
 H         1.394506        -0.378713         2.464612
 H         1.485220         1.379602         2.536625
 H        -0.805875        -0.422048         0.661563
 H        -0.735999         1.207457        -0.025922
 H        -0.261313        -0.205968        -0.944425
 H         4.248547         1.625062        -0.104864
 H         4.218581        -0.667989        -0.125874
