19
Iteration:  2890
 C         4.291234         0.754768         2.600076
 C         3.243241         0.671859         1.555538
 C         1.749804         0.651362         1.902717
 C         1.284894         0.348929         0.438828
 C        -0.146464         0.124817         0.015538
 O         2.009364         1.568910        -0.211045
 C         3.294731         1.239571         0.121227
 C         3.379321        -0.325479         0.365242
 O         2.015382        -0.749776         0.046888
 H         4.255396         1.731725         3.120182
 H         4.084442        -0.035717         3.348116
 H         5.332005         0.693279         2.220134
 H         1.589527        -0.083470         2.728396
 H         1.518261         1.618081         2.415349
 H        -0.434471        -0.943530        -0.100270
 H        -0.732617         0.636169         0.801373
 H        -0.297934         0.661461        -0.970254
 H         4.012720         2.073007        -0.246561
 H         4.035060        -1.075333        -0.113678
