19
Iteration:  2252
 C         4.269551         0.643385         2.579996
 C         3.224008         0.669012         1.581776
 C         1.781359         0.557051         1.855393
 C         1.288836         0.402931         0.412068
 C        -0.203635         0.287797         0.119518
 O         1.883442         1.482620        -0.219774
 C         3.269498         1.241401         0.115689
 C         3.407750        -0.188239         0.399115
 O         2.194822        -0.744345         0.005838
 H         4.233978         1.450213         3.286954
 H         4.254734        -0.372174         3.122754
 H         5.231043         0.682860         2.050455
 H         1.663116        -0.245865         2.683384
 H         1.287614         1.538126         2.236478
 H        -0.899141         0.947578         0.702190
 H        -0.500228         0.691030        -0.956187
 H        -0.281653        -0.822347         0.221409
 H         3.984796         1.841049        -0.344613
 H         4.246353        -0.909042         0.222861
