19
Iteration:  1171charge 0 multiplicity 1
 C         4.362673         0.249902         2.498352
 C         3.240818         0.289813         1.531741
 C         1.832650        -0.077125         1.789518
 C         1.294849         0.313470         0.415997
 C        -0.126124         0.086712         0.154054
 O         1.684183         1.744139         0.309072
 C         3.066215         1.597321         0.627561
 C         3.487967         0.269547         0.057280
 O         2.257177        -0.209840        -0.495336
 H         4.175383         0.686352         3.539205
 H         4.858046        -0.751184         2.544594
 H         5.157263         0.847410         1.985885
 H         1.723961        -1.197258         1.696423
 H         1.210591         0.282576         2.620374
 H        -0.460517         1.004657        -0.372505
 H        -0.160194        -0.695699        -0.625415
 H        -0.675728        -0.134361         1.132179
 H         3.655854         2.494757         0.600274
 H         4.459109         0.158804        -0.465022
