19
Iteration:  1857charge 0 multiplicity 1
 C         4.363024         0.629128         2.675844
 C         3.239416         0.379860         1.553584
 C         1.807641         0.275602         1.933101
 C         1.271206         0.360964         0.417190
 C        -0.214686         0.232824         0.087815
 O         1.873712         1.618123         0.001023
 C         3.215611         1.348517         0.314548
 C         3.391564        -0.093883         0.139503
 O         2.158339        -0.524710        -0.265157
 H         3.944601         1.184121         3.482251
 H         4.929569        -0.305401         2.976366
 H         4.998977         1.397690         2.071097
 H         1.566282        -0.687395         2.451032
 H         1.445513         1.185838         2.461960
 H        -0.162760        -0.126150        -0.941148
 H        -0.570936        -0.501561         0.773160
 H        -0.779123         1.108272         0.241965
 H         3.835421         2.255840        -0.022890
 H         4.312792        -0.623435        -0.162795
