19
Iteration:  4243charge 0 multiplicity 1
 C         4.312939         0.905791         2.706009
 C         3.331301         0.431971         1.610513
 C         1.787715         0.391989         1.907528
 C         1.281315         0.431768         0.482921
 C        -0.164547         0.248017        -0.012555
 O         1.893017         1.564886        -0.133617
 C         3.232881         1.229692         0.100156
 C         3.376969        -0.235384         0.186009
 O         2.077657        -0.726258         0.002665
 H         4.107710         1.930738         2.821351
 H         4.287250         0.294267         3.567093
 H         5.317521         0.880910         2.374343
 H         1.438974        -0.412373         2.590172
 H         1.388179         1.305565         2.394519
 H        -0.089446        -0.133219        -0.977910
 H        -0.619865        -0.374425         0.834260
 H        -0.644104         1.214675        -0.016105
 H         3.991961         1.727737        -0.415654
 H         4.305932        -0.729040        -0.274891
