19
Iteration:  3596
 C         4.333313         0.916553         2.731484
 C         3.341165         0.626032         1.602323
 C         1.846467         0.473163         1.899900
 C         1.264266         0.301369         0.499170
 C        -0.106899         0.349022        -0.067183
 O         1.835784         1.567120        -0.121364
 C         3.252357         1.171666         0.097604
 C         3.352664        -0.316016         0.293544
 O         2.039790        -0.814795        -0.034618
 H         4.313251         1.949784         3.073385
 H         4.237994         0.194919         3.543848
 H         5.359813         0.784618         2.363989
 H         1.855436        -0.474372         2.461637
 H         1.229582         1.257998         2.365577
 H         0.038967         0.087350        -1.085656
 H        -0.789331        -0.465327         0.273414
 H        -0.530365         1.303595        -0.007560
 H         3.628243         1.929281        -0.580881
 H         4.163439        -0.898519        -0.021997
