19
Iteration:  3655charge 0 multiplicity 1
 C         4.469297         0.690158         2.605778
 C         3.151393         0.692906         1.741332
 C         1.590680         0.635275         1.826527
 C         1.320176         0.291690         0.304766
 C        -0.145644         0.145879         0.164010
 O         1.965312         1.563710        -0.272033
 C         3.274169         1.221094         0.214111
 C         3.348301        -0.218907         0.401042
 O         2.138901        -0.728472        -0.126024
 H         4.183126         1.356061         3.417421
 H         4.489775        -0.283138         3.118411
 H         5.338466         0.893167         1.993415
 H         1.315166        -0.109605         2.591649
 H         0.962510         1.522433         2.013408
 H        -0.536916        -0.151633        -0.904385
 H        -0.386664        -0.407052         1.110799
 H        -0.595356         1.202425         0.491591
 H         4.025488         1.822713        -0.274815
 H         4.358630        -0.733177         0.278950
