19
Iteration:   605
 C         4.512126        -0.020061         2.479153
 C         3.413914         0.195497         1.475038
 C         2.054327        -0.361640         1.655354
 C         1.276054         0.340635         0.503777
 C        -0.079911        -0.008765        -0.113051
 O         1.506728         1.771376         0.743285
 C         2.899844         1.699798         0.865034
 C         3.423388         0.560391        -0.132890
 O         2.152573         0.071326        -0.613215
 H         4.171476         0.118989         3.475442
 H         4.931739        -1.060598         2.339060
 H         5.319091         0.649109         2.288074
 H         1.930122        -1.397055         1.427766
 H         1.492962        -0.027374         2.562223
 H        -0.749596        -0.684399         0.457498
 H        -0.573083         0.992603        -0.062132
 H         0.190518        -0.410731        -1.119954
 H         3.321542         2.683343         1.060182
 H         4.326490         0.795052        -0.717132
