19
Iteration:  1569
 C         4.357118         0.452906         2.499834
 C         3.214385         0.376694         1.590702
 C         1.749820         0.135384         1.891394
 C         1.373509         0.350275         0.386076
 C        -0.116577         0.027533         0.084999
 O         1.802313         1.766703         0.214060
 C         3.180031         1.470763         0.422462
 C         3.402117         0.042302         0.135014
 O         2.156101        -0.364962        -0.423851
 H         4.340612         1.353715         3.234807
 H         4.445047        -0.334658         3.266095
 H         5.326197         0.520933         1.970780
 H         1.382883        -0.864159         2.203227
 H         1.344357         0.946320         2.547938
 H        -0.136960        -0.623784        -0.782687
 H        -0.545569        -0.398017         0.925955
 H        -0.558182         1.027901        -0.055012
 H         3.796102         2.305290         0.408048
 H         4.262419        -0.637342         0.073190
