19
Iteration:  4165charge 0 multiplicity 1
 C         4.392029         0.698059         2.670932
 C         3.336653         0.650065         1.606865
 C         1.795411         0.632351         1.897366
 C         1.259745         0.345073         0.423605
 C        -0.224674         0.044591         0.017776
 O         1.912211         1.551431        -0.220633
 C         3.321864         1.296578         0.135702
 C         3.299157        -0.213890         0.311946
 O         2.031987        -0.688271        -0.007675
 H         3.988399         1.376088         3.383587
 H         4.496990        -0.182565         3.265059
 H         5.307303         1.102988         2.316911
 H         1.616907        -0.073165         2.719786
 H         1.571483         1.602590         2.298748
 H        -0.164616         0.083488        -1.088274
 H        -0.498539        -0.973209         0.252446
 H        -0.901101         0.757255         0.471720
 H         4.219030         1.942172        -0.087226
 H         4.011002        -0.903899        -0.086536
