19
Iteration:  2271charge 0 multiplicity 1
 C         4.357259         0.771243         2.638269
 C         3.249294         0.678065         1.578828
 C         1.742216         0.548128         1.869871
 C         1.285747         0.344190         0.429434
 C        -0.139225         0.168172         0.070867
 O         1.981534         1.588203        -0.210883
 C         3.343055         1.316563         0.201616
 C         3.314298        -0.326142         0.259560
 O         1.996641        -0.786140        -0.019710
 H         4.236904         1.786274         3.100489
 H         4.115027         0.029087         3.378161
 H         5.400277         0.650028         2.252558
 H         1.401515        -0.285511         2.462186
 H         1.442302         1.367103         2.509751
 H        -0.715185         0.648868         0.842950
 H        -0.372763         0.864855        -0.668844
 H        -0.392369        -0.877287        -0.055008
 H         4.128472         1.913312        -0.166815
 H         4.191532        -0.959904         0.014702
