19
Iteration:   894
 C         4.390290         0.196522         2.541280
 C         3.357034         0.380266         1.502101
 C         2.008732        -0.309894         1.716137
 C         1.298696         0.238653         0.348119
 C        -0.162725         0.214346         0.059842
 O         1.560245         1.633877         0.624828
 C         2.990525         1.607671         0.750270
 C         3.423637         0.356637        -0.035190
 O         2.284287        -0.059259        -0.672631
 H         4.046460         0.806246         3.382620
 H         4.581096        -0.841227         2.960377
 H         5.412825         0.587195         2.164447
 H         2.112330        -1.371828         1.512761
 H         1.485758        -0.221502         2.677975
 H        -0.472738        -0.324894        -0.819445
 H        -0.710461        -0.289696         0.914036
 H        -0.538445         1.260816         0.019305
 H         3.502481         2.620213         0.656230
 H         4.308095         0.372214        -0.722938
