19
Iteration:  1011charge 0 multiplicity 1
 C         4.385085         0.182608         2.547896
 C         3.330199         0.422909         1.565072
 C         1.953488        -0.253768         1.721507
 C         1.309435         0.295382         0.434670
 C        -0.088296         0.127992         0.026005
 O         1.613028         1.719684         0.537221
 C         3.039605         1.644752         0.655027
 C         3.398438         0.395365        -0.090815
 O         2.185961        -0.187174        -0.551861
 H         4.015358         0.401752         3.609913
 H         4.578397        -0.931158         2.657254
 H         5.353882         0.672620         2.256192
 H         1.943513        -1.384771         1.749856
 H         1.591085         0.100283         2.684155
 H        -0.765620         0.551460         0.757026
 H        -0.255283         0.593508        -0.945342
 H        -0.322127        -0.959580        -0.075910
 H         3.672666         2.548695         0.425402
 H         4.379119         0.111639        -0.623184
