19
Iteration:  3377charge 0 multiplicity 1
 C         4.299701         0.750909         2.693694
 C         3.300259         0.667485         1.539373
 C         1.816989         0.526992         1.898739
 C         1.277342         0.310977         0.427644
 C        -0.188392         0.283626        -0.018915
 O         1.874278         1.532161        -0.196002
 C         3.280101         1.253331         0.097126
 C         3.383744        -0.242145         0.296002
 O         2.107249        -0.800392         0.114437
 H         4.339600         1.793028         2.923791
 H         3.906077         0.180132         3.509135
 H         5.317890         0.465781         2.429582
 H         1.553687        -0.362788         2.467578
 H         1.487309         1.463244         2.326331
 H        -0.178166         0.265461        -1.157732
 H        -0.812538        -0.559985         0.321473
 H        -0.619797         1.279506         0.333282
 H         3.898612         1.857077        -0.529297
 H         4.286080        -0.736008         0.048177
