19
Iteration:  2077charge 0 multiplicity 1
 C         4.322023         0.615351         2.628788
 C         3.210260         0.563975         1.582949
 C         1.788727         0.584627         1.898217
 C         1.329910         0.397182         0.452703
 C        -0.089658         0.062330         0.112366
 O         1.932087         1.643311        -0.103748
 C         3.313912         1.303761         0.217134
 C         3.295883        -0.192733         0.239821
 O         2.033860        -0.665215        -0.170428
 H         4.101439         1.303107         3.376125
 H         4.311158        -0.385744         3.137684
 H         5.279960         0.748128         2.135280
 H         1.472734        -0.110060         2.722104
 H         1.474582         1.604795         2.271529
 H        -0.065957        -0.855517        -0.446261
 H        -0.679325         0.003859         1.033592
 H        -0.505796         0.650797        -0.733296
 H         3.938286         2.205808        -0.017617
 H         4.083323        -0.847780        -0.112572
