19
Iteration:  2264charge 0 multiplicity 1
 C         4.301938         0.733181         2.585404
 C         3.256306         0.721988         1.524061
 C         1.768323         0.587570         1.860751
 C         1.311933         0.360569         0.405211
 C        -0.178110         0.223574         0.084859
 O         1.989194         1.548103        -0.160857
 C         3.285222         1.266459         0.190068
 C         3.378306        -0.302488         0.353752
 O         2.037104        -0.785105        -0.008655
 H         4.280721         1.598128         3.228600
 H         4.091154        -0.181551         3.254440
 H         5.309211         0.621006         2.198434
 H         1.554606        -0.434035         2.347534
 H         1.226328         1.463006         2.387728
 H        -0.723430         0.572605         0.996707
 H        -0.457156         0.665963        -0.989787
 H        -0.548820        -0.829785         0.022203
 H         3.996936         2.002565        -0.194267
 H         4.284586        -0.800995        -0.022672
