19
Iteration:   147
 C         4.646994        -0.158332         2.196873
 C         3.364851         0.171965         1.427678
 C         2.034577        -0.536180         1.335096
 C         1.252911         0.319384         0.396154
 C        -0.280181        -0.087258        -0.015836
 O         1.387291         1.593916         0.933275
 C         2.811451         1.699445         1.210061
 C         3.457958         0.823014         0.113134
 O         2.436425         0.449592        -0.764886
 H         4.483623        -0.121238         3.234440
 H         5.260449        -1.062508         1.862500
 H         5.316567         0.642754         1.988582
 H         2.110771        -1.597315         1.035295
 H         1.525724        -0.702522         2.324643
 H        -0.851483         0.483571         0.718258
 H        -0.474052         0.254257        -1.001023
 H        -0.517269        -1.118490         0.204366
 H         3.024399         2.596272         1.781692
 H         4.389161         1.167879        -0.220704
