19
Iteration:  2131
 C         4.298156         0.733725         2.544661
 C         3.189433         0.615149         1.589495
 C         1.729509         0.378573         1.894787
 C         1.336515         0.274795         0.475348
 C        -0.075662         0.405897         0.090357
 O         1.869768         1.478366        -0.148767
 C         3.216534         1.343927         0.225556
 C         3.410258        -0.168698         0.295324
 O         2.132707        -0.722679        -0.095324
 H         4.499318         1.731928         2.917116
 H         4.049820         0.147041         3.451228
 H         5.259265         0.330270         2.176277
 H         1.739723        -0.657934         2.347506
 H         1.211588         1.103913         2.605862
 H        -0.110844         0.392352        -1.003914
 H        -0.710724        -0.532439         0.248020
 H        -0.452700         1.275924         0.733270
 H         3.889206         1.895580        -0.500989
 H         4.246124        -0.804463         0.110645
