19
Iteration:  1726charge 0 multiplicity 1
 C         4.430911         0.451497         2.675688
 C         3.266559         0.521728         1.597908
 C         1.806340         0.188877         1.923157
 C         1.291411         0.279178         0.492774
 C        -0.092857         0.255238         0.069919
 O         1.779674         1.630416         0.013338
 C         3.078086         1.518164         0.338157
 C         3.394814         0.043107         0.071954
 O         2.185229        -0.565272        -0.283366
 H         4.397489         1.303635         3.279949
 H         4.305967        -0.491278         3.258109
 H         5.549527         0.331001         2.384742
 H         1.561160        -0.860354         2.223275
 H         1.201620         0.845777         2.579088
 H        -0.904050         0.231219         0.795589
 H        -0.411696         1.103682        -0.570294
 H        -0.226036        -0.624539        -0.525334
 H         3.672312         2.277581        -0.037313
 H         4.230540        -0.267054        -0.534888
