19
Iteration:  2805charge 0 multiplicity 1
 C         4.290924         0.931432         2.561942
 C         3.208879         0.547310         1.580486
 C         1.711441         0.548054         1.955697
 C         1.284825         0.442192         0.499612
 C        -0.067977         0.226344         0.034588
 O         1.968661         1.563035        -0.244953
 C         3.364438         1.103487         0.162796
 C         3.361551        -0.384078         0.277891
 O         2.020507        -0.710680         0.017801
 H         3.945587         1.923034         2.996321
 H         4.130108         0.266906         3.408992
 H         5.388081         0.875663         2.378070
 H         1.453073        -0.310369         2.565650
 H         1.533702         1.515279         2.398463
 H        -0.145315        -0.802729        -0.356590
 H        -0.782829         0.354422         0.786990
 H        -0.481729         0.941914        -0.701674
 H         4.176386         1.770283        -0.275986
 H         4.027016        -1.177314         0.122530
