19
Iteration:  1993
 C         4.310877         0.741604         2.596074
 C         3.286879         0.463352         1.608392
 C         1.740976         0.336354         1.871636
 C         1.297807         0.391164         0.388501
 C        -0.121423         0.219260         0.079427
 O         1.904574         1.674703         0.023431
 C         3.241644         1.264702         0.296943
 C         3.412660        -0.223644         0.147657
 O         2.070524        -0.630803        -0.178290
 H         4.117649         1.701390         3.290881
 H         4.564303         0.035684         3.505802
 H         5.254713         0.911972         2.042175
 H         1.459241        -0.616542         2.329013
 H         1.375317         1.213987         2.425201
 H        -0.753006         0.267646         0.988016
 H        -0.622259         0.977876        -0.660528
 H        -0.209339        -0.747326        -0.513386
 H         3.880689         2.102230        -0.098153
 H         4.217338        -0.885520        -0.128287
