19
Iteration:  3507
 C         4.232227         0.676609         2.676428
 C         3.375529         0.660506         1.474185
 C         1.765428         0.669655         1.965508
 C         1.278695         0.329681         0.519349
 C        -0.075194         0.191178        -0.012271
 O         1.885238         1.514876        -0.233112
 C         3.240330         1.295807         0.055779
 C         3.358189        -0.195903         0.280342
 O         2.083350        -0.813146         0.121672
 H         3.885886         1.440365         3.398413
 H         4.156130        -0.274125         3.176435
 H         5.289665         0.737889         2.393875
 H         1.613026         0.072540         2.896761
 H         1.426020         1.677027         2.249071
 H         0.061235         0.385031        -1.090207
 H        -0.425535        -0.789570         0.028583
 H        -0.738934         0.947963         0.334571
 H         3.929680         1.981948        -0.486558
 H         4.121887        -0.966696        -0.060141
