19
Iteration:    23
 C         4.703692        -0.203941         2.142405
 C         3.334191         0.184594         1.515849
 C         2.121843        -0.732401         1.176443
 C         1.302980         0.339339         0.362178
 C        -0.144466        -0.070278         0.044107
 O         1.357131         1.610954         0.966284
 C         2.735269         1.579729         1.366365
 C         3.377694         1.056339         0.113429
 O         2.322658         0.537484        -0.756448
 H         4.709633        -0.251490         3.229788
 H         4.985213        -1.197099         1.781515
 H         5.452459         0.508872         1.828808
 H         2.372835        -1.556744         0.473659
 H         1.571614        -1.110101         2.007080
 H        -0.445155        -1.000713         0.530576
 H        -0.843568         0.726218         0.332889
 H        -0.252599        -0.190196        -1.028755
 H         3.036987         2.470686         1.861086
 H         4.265366         1.414936        -0.433057
