19
Iteration:   648
 C         4.500644        -0.039635         2.286459
 C         3.248644         0.306476         1.579240
 C         1.833653        -0.310031         1.635301
 C         1.340068         0.295838         0.348384
 C        -0.006017        -0.007242         0.052908
 O         1.512060         1.763388         0.607120
 C         2.924099         1.655971         0.893338
 C         3.437492         0.518481         0.080393
 O         2.294599         0.113588        -0.631729
 H         4.529781         0.020669         3.394239
 H         4.894516        -1.049875         2.062605
 H         5.194588         0.703844         1.969550
 H         2.009413        -1.357387         1.522609
 H         1.343968        -0.066682         2.612635
 H        -0.276052        -1.036789        -0.172842
 H        -0.523494         0.111231         1.029685
 H        -0.379308         0.681796        -0.731225
 H         3.493594         2.510300         1.195880
 H         4.370545         0.430888        -0.428038
