19
Iteration:  3487
 C         4.305238         0.718825         2.692366
 C         3.356117         0.650382         1.575892
 C         1.855995         0.653684         1.814589
 C         1.261154         0.394485         0.467733
 C        -0.116388         0.250771        -0.061860
 O         1.827883         1.489925        -0.282871
 C         3.194573         1.261197         0.137977
 C         3.355614        -0.209424         0.301346
 O         2.107384        -0.835234         0.190538
 H         4.027285         1.218605         3.600545
 H         4.288886        -0.291122         3.113524
 H         5.357934         0.813597         2.422290
 H         1.550072        -0.303582         2.243769
 H         1.524952         1.494726         2.411585
 H        -0.117936         0.163595        -1.192944
 H        -0.693793        -0.630680         0.463329
 H        -0.722407         1.079617         0.302947
 H         3.873782         2.021460        -0.362744
 H         4.317159        -0.708076        -0.092097
