19
Iteration:  4513
 C         4.310633         0.754714         2.590720
 C         3.207081         0.594909         1.566781
 C         1.752520         0.486100         1.902752
 C         1.299734         0.420707         0.447794
 C        -0.157433         0.272737         0.124390
 O         1.893160         1.516740        -0.186151
 C         3.229284         1.325556         0.249474
 C         3.388380        -0.233388         0.236060
 O         2.160407        -0.812371        -0.063317
 H         4.171912         1.718342         3.127699
 H         4.396876        -0.092289         3.280226
 H         5.267113         0.914153         2.060484
 H         1.583147        -0.531630         2.354156
 H         1.206856         1.322203         2.388178
 H        -0.194307         0.444331        -0.898737
 H        -0.302174        -0.846007         0.263387
 H        -0.678567         1.022131         0.729772
 H         3.938969         2.089794        -0.132507
 H         4.308217        -0.796684        -0.031387
