19
Iteration:  2092
 C         4.369200         0.567833         2.654784
 C         3.320826         0.498598         1.586464
 C         1.705752         0.566503         1.868812
 C         1.244250         0.435011         0.425437
 C        -0.198683         0.095151         0.083833
 O         1.913672         1.601072        -0.131484
 C         3.243990         1.329000         0.202125
 C         3.402291        -0.186872         0.264480
 O         2.115551        -0.610967        -0.096756
 H         4.259503         1.648251         3.048181
 H         4.425148        -0.195199         3.520781
 H         5.410259         0.670468         2.274767
 H         1.302135        -0.291502         2.374558
 H         1.385793         1.544351         2.203019
 H        -0.173844        -0.809762        -0.588433
 H        -0.844563        -0.223630         0.968456
 H        -0.703834         0.994404        -0.205762
 H         4.036509         1.803117        -0.275417
 H         4.303059        -0.664950        -0.134093
