19
Iteration:  3370charge 0 multiplicity 1
 C         4.284951         0.731177         2.647698
 C         3.339916         0.633034         1.543954
 C         1.758470         0.553607         1.869998
 C         1.235628         0.368658         0.478419
 C        -0.236007         0.253644        -0.007668
 O         1.906168         1.516705        -0.263264
 C         3.261372         1.268718         0.170968
 C         3.439353        -0.236405         0.295689
 O         2.159231        -0.779308         0.114616
 H         4.288378         1.771247         3.019845
 H         4.023821         0.168449         3.591685
 H         5.260812         0.383985         2.266464
 H         1.551235        -0.267568         2.550875
 H         1.332116         1.518593         2.185868
 H        -0.217129         0.383902        -1.080504
 H        -0.795787        -0.619909         0.432446
 H        -0.738804         1.083570         0.417991
 H         4.006790         1.861509        -0.321062
 H         4.161492        -0.980983        -0.105709
