19
Iteration:  4188charge 0 multiplicity 1
 C         4.373141         0.767209         2.547336
 C         3.179466         0.583408         1.666920
 C         1.660642         0.551722         1.834533
 C         1.296701         0.435436         0.354217
 C        -0.134496         0.276813         0.140499
 O         1.916721         1.477366        -0.254844
 C         3.172776         1.287218         0.213066
 C         3.416909        -0.225649         0.357388
 O         2.194844        -0.799033        -0.020839
 H         4.302033         1.306013         3.468985
 H         4.587749        -0.229364         2.917388
 H         5.187569         1.109899         1.952206
 H         1.302793        -0.407228         2.295716
 H         1.269397         1.408975         2.419834
 H        -0.391355         0.009907        -0.862770
 H        -0.474172        -0.603760         0.761476
 H        -0.601457         1.164173         0.543977
 H         3.968633         1.975035        -0.016765
 H         4.401491        -0.729310         0.125130
