19
Iteration:  2052
 C         4.353930         0.570654         2.597080
 C         3.238933         0.607317         1.569656
 C         1.756560         0.448514         1.893967
 C         1.293595         0.391557         0.446680
 C        -0.221931         0.220203         0.101998
 O         1.900640         1.569208        -0.160955
 C         3.266341         1.355434         0.201441
 C         3.396057        -0.147093         0.291387
 O         2.147147        -0.681337        -0.073784
 H         3.958721         1.160803         3.408495
 H         4.547764        -0.404874         2.909915
 H         5.283532         1.052935         2.278507
 H         1.597092        -0.506235         2.416472
 H         1.308119         1.258101         2.478327
 H        -0.544890        -0.834757         0.145711
 H        -0.841782         0.837921         0.696852
 H        -0.313929         0.457902        -0.952301
 H         3.893955         2.131518        -0.221189
 H         4.266249        -0.739445        -0.065517
