19
Iteration:    65charge 0 multiplicity 1
 C         4.551570        -0.178151         2.237064
 C         3.383620         0.193642         1.395845
 C         2.131184        -0.646230         1.351681
 C         1.341384         0.260746         0.406136
 C        -0.003510        -0.048608        -0.103664
 O         1.439157         1.521575         1.137732
 C         2.835370         1.589314         1.249536
 C         3.267412         1.077564        -0.063047
 O         2.181437         0.518084        -0.760300
 H         4.317301        -0.245726         3.333910
 H         4.808848        -1.146839         1.991634
 H         5.416503         0.514755         2.122804
 H         2.276199        -1.635026         0.993290
 H         1.591364        -0.522751         2.289792
 H         0.219599        -0.573844        -1.071555
 H        -0.728716        -0.656510         0.474492
 H        -0.470765         0.942999        -0.329162
 H         3.248139         2.487086         1.626287
 H         4.210378         1.246113        -0.562270
