19
Iteration:   986charge 0 multiplicity 1
 C         4.444560         0.082571         2.388989
 C         3.301362         0.356776         1.550227
 C         1.917083        -0.193901         1.735658
 C         1.306931         0.307015         0.454693
 C        -0.140391         0.115315         0.063073
 O         1.574999         1.717421         0.421596
 C         2.958702         1.750176         0.705818
 C         3.437371         0.386148         0.085964
 O         2.325798        -0.190776        -0.552854
 H         4.147391         0.220100         3.570865
 H         4.709520        -0.988407         2.333563
 H         5.337868         0.584089         2.083720
 H         1.783451        -1.316555         1.785958
 H         1.519203         0.273216         2.724752
 H        -0.731506         1.071146         0.227813
 H        -0.157159        -0.160223        -1.015388
 H        -0.605821        -0.759072         0.576011
 H         3.461093         2.649009         1.035472
 H         4.330381         0.356982        -0.466509
