19
Iteration:  3037
 C         4.435245         0.684160         2.660438
 C         3.277991         0.615827         1.642865
 C         1.682573         0.590120         1.892671
 C         1.260129         0.431393         0.373662
 C        -0.179196         0.151281         0.117250
 O         1.921732         1.472472        -0.318625
 C         3.261258         1.276313         0.268102
 C         3.347010        -0.193213         0.303965
 O         2.117341        -0.689653        -0.091958
 H         4.577971         1.760917         2.998641
 H         3.980660         0.120865         3.537004
 H         5.404511         0.217824         2.384867
 H         1.394706        -0.224698         2.555963
 H         1.257361         1.451694         2.394868
 H        -0.699446         0.004812         1.058562
 H        -0.396562         1.056407        -0.520373
 H        -0.274083        -0.710767        -0.499491
 H         3.960017         2.113892        -0.114745
 H         4.069849        -1.011918         0.223452
