19
Iteration:  4162
 C         4.355139         0.701927         2.661201
 C         3.333489         0.641487         1.596578
 C         1.820041         0.655563         1.924834
 C         1.246234         0.323263         0.455210
 C        -0.189644         0.021369         0.013161
 O         1.924369         1.550691        -0.196111
 C         3.313787         1.268805         0.089513
 C         3.295231        -0.207248         0.299928
 O         2.025136        -0.649084        -0.002981
 H         3.965410         1.350632         3.462092
 H         4.423029        -0.165627         3.315876
 H         5.348011         1.050710         2.303636
 H         1.653679        -0.092893         2.658813
 H         1.554605         1.617236         2.288284
 H        -0.167937         0.121173        -1.127169
 H        -0.467758        -0.979611         0.143578
 H        -0.887723         0.774744         0.431206
 H         4.212525         1.888285        -0.113085
 H         3.999193        -0.875236        -0.097569
