19
Iteration:  3114
 C         4.316952         0.853462         2.543884
 C         3.204013         0.493415         1.610852
 C         1.737832         0.543790         1.923994
 C         1.268881         0.424242         0.434447
 C        -0.164924         0.230371         0.084458
 O         1.986865         1.538635        -0.224505
 C         3.297843         1.240950         0.280105
 C         3.410550        -0.356919         0.322145
 O         2.047597        -0.699342        -0.117995
 H         3.811915         1.537658         3.276988
 H         4.740497         0.067150         3.241086
 H         5.156395         1.402547         2.064550
 H         1.428372        -0.306693         2.526593
 H         1.337995         1.461484         2.320142
 H        -0.352298        -0.599886         0.764316
 H        -0.671331         1.192627         0.353017
 H        -0.188216        -0.030258        -0.973117
 H         4.126292         1.873940        -0.080223
 H         4.123742        -1.207774         0.148562
