19
Iteration:  1767charge 0 multiplicity 1
 C         4.380158         0.463273         2.575417
 C         3.275649         0.454851         1.589006
 C         1.640882         0.320505         1.875215
 C         1.272762         0.375353         0.439077
 C        -0.131751        -0.009610         0.109101
 O         1.860556         1.807018         0.103194
 C         3.217901         1.422703         0.338264
 C         3.403689        -0.018840         0.153005
 O         2.161412        -0.524415        -0.332964
 H         4.539044         1.472502         3.065451
 H         4.269984        -0.349293         3.310700
 H         5.436229         0.370578         2.192718
 H         1.516075        -0.685324         2.365746
 H         1.210510         1.107801         2.542592
 H        -0.429281        -0.879101         0.674174
 H        -0.730339         0.953305         0.250978
 H        -0.291206        -0.269757        -0.960393
 H         3.998135         2.067687         0.075938
 H         4.333819        -0.416830        -0.225922
