19
Iteration:  3332charge 0 multiplicity 1
 C         4.370764         0.766415         2.598744
 C         3.133513         0.650689         1.613683
 C         1.631758         0.676821         1.807561
 C         1.339219         0.355256         0.360846
 C        -0.111972         0.113359         0.172675
 O         2.006024         1.594668        -0.272379
 C         3.307616         1.220305         0.184132
 C         3.289516        -0.344133         0.504429
 O         2.096419        -0.686037        -0.093032
 H         4.449307         1.529741         3.372084
 H         4.482706        -0.211600         2.996168
 H         5.264210         0.890074         1.989180
 H         1.500604        -0.148764         2.544245
 H         1.171311         1.618848         2.117588
 H        -0.557192         0.331396        -0.839808
 H        -0.222141        -0.942500         0.264155
 H        -0.792477         0.682518         0.934741
 H         4.350633         1.508409        -0.214334
 H         4.106818        -1.079952         0.338880
