19
Iteration:   886charge 0 multiplicity 1
 C         4.395148         0.206464         2.523804
 C         3.298530         0.353223         1.510032
 C         1.947452        -0.409559         1.693519
 C         1.290742         0.267642         0.393001
 C        -0.165760         0.178992         0.117857
 O         1.584253         1.624179         0.589553
 C         2.972995         1.641463         0.661431
 C         3.496807         0.393364        -0.009890
 O         2.299432        -0.037349        -0.668651
 H         4.094869         0.939512         3.390925
 H         4.540565        -0.821385         2.806761
 H         5.364271         0.565095         2.213210
 H         2.060815        -1.486947         1.584609
 H         1.457743        -0.147723         2.690915
 H        -0.525738        -0.364213        -0.765440
 H        -0.700716         0.089750         1.082661
 H        -0.298592         1.248230        -0.125463
 H         3.547394         2.525518         0.983959
 H         4.402726         0.482768        -0.705755
