19
Iteration:    58charge 0 multiplicity 1
 C         4.527335        -0.160601         2.195260
 C         3.323048         0.257524         1.416841
 C         2.083232        -0.660174         1.335066
 C         1.362008         0.293507         0.387356
 C        -0.003978        -0.074297        -0.069874
 O         1.414951         1.497889         1.157390
 C         2.825086         1.589675         1.239902
 C         3.363197         1.041800        -0.057176
 O         2.231517         0.535317        -0.759837
 H         4.392817        -0.201854         3.253288
 H         4.778269        -1.252563         1.854076
 H         5.388337         0.425925         2.014236
 H         2.274652        -1.714702         0.939246
 H         1.483842        -0.676621         2.235781
 H         0.016787        -0.794584        -0.852162
 H        -0.631211        -0.430040         0.760494
 H        -0.350873         0.864601        -0.439239
 H         3.162281         2.502788         1.749581
 H         4.286162         1.323138        -0.653571
