19
Iteration:  2090charge 0 multiplicity 1
 C         4.363331         0.563059         2.645572
 C         3.317093         0.500860         1.589116
 C         1.709576         0.572659         1.865317
 C         1.241190         0.443625         0.425705
 C        -0.179637         0.076297         0.088560
 O         1.924454         1.597184        -0.118000
 C         3.250383         1.334748         0.188084
 C         3.385232        -0.189928         0.273936
 O         2.104991        -0.612533        -0.108186
 H         4.225136         1.571297         3.043248
 H         4.456027        -0.191036         3.528808
 H         5.385857         0.717333         2.304792
 H         1.302515        -0.290479         2.427226
 H         1.357660         1.591224         2.156815
 H        -0.128662        -0.835172        -0.509417
 H        -0.884565        -0.214028         0.953901
 H        -0.645788         1.015996        -0.225896
 H         4.076549         1.862837        -0.247511
 H         4.257361        -0.619332        -0.163599
