19
Iteration:  4719charge 0 multiplicity 1
 C         4.321304         0.872876         2.584789
 C         3.271244         0.538520         1.607825
 C         1.729538         0.497267         1.940907
 C         1.277088         0.323033         0.339039
 C        -0.132030         0.173745         0.090838
 O         1.917477         1.589484        -0.140387
 C         3.312594         1.225137         0.278157
 C         3.337076        -0.280759         0.325209
 O         2.084981        -0.664813        -0.158797
 H         4.188150         1.750455         3.215047
 H         4.514242         0.015848         3.220371
 H         5.243847         1.028138         2.001748
 H         1.476927        -0.386758         2.564389
 H         1.318690         1.352368         2.478432
 H        -0.548594         0.411923        -0.816897
 H        -0.357548        -0.923104         0.226668
 H        -0.681115         0.760162         0.812766
 H         4.135364         1.810408        -0.253379
 H         4.187255        -0.836616        -0.100126
