19
Iteration:   161charge 0 multiplicity 1
 C         4.596542        -0.185059         2.234611
 C         3.353980         0.260305         1.463928
 C         2.051324        -0.618310         1.407002
 C         1.267222         0.335663         0.415102
 C        -0.149726        -0.060937        -0.050957
 O         1.422017         1.608984         1.036743
 C         2.846070         1.703424         1.167395
 C         3.385204         0.926188         0.018278
 O         2.340280         0.365541        -0.797633
 H         4.354243        -0.204185         3.364976
 H         4.872153        -1.236571         1.985102
 H         5.515365         0.522067         2.092347
 H         2.254019        -1.533871         0.860948
 H         1.488833        -0.694509         2.427449
 H        -0.958575        -0.012592         0.736370
 H        -0.493168         0.538544        -0.924308
 H        -0.055763        -1.083799        -0.477465
 H         3.230784         2.665916         1.428173
 H         4.295480         1.136695        -0.595180
