19
Iteration:  3678charge 0 multiplicity 1
 C         4.336465         0.672833         2.624318
 C         3.225545         0.658007         1.602721
 C         1.677985         0.576148         1.833096
 C         1.266700         0.406140         0.379250
 C        -0.192720         0.183224         0.155018
 O         1.978232         1.465387        -0.369595
 C         3.271759         1.297744         0.269196
 C         3.383129        -0.181455         0.380614
 O         2.158012        -0.740935        -0.020022
 H         4.339954         1.510427         3.363302
 H         4.404805        -0.286935         3.162381
 H         5.182201         0.718807         1.937677
 H         1.277822        -0.202649         2.514791
 H         1.431968         1.520292         2.304253
 H        -0.428547         0.137854        -0.984016
 H        -0.427397        -0.712945         0.733817
 H        -0.813501         1.001192         0.677929
 H         3.873968         2.123709        -0.099699
 H         4.275281        -0.780602         0.251172
