19
Iteration:  4364charge 0 multiplicity 1
 C         4.349018         0.876504         2.654121
 C         3.334778         0.465657         1.579032
 C         1.818751         0.565373         1.885611
 C         1.275166         0.474520         0.439554
 C        -0.189616         0.079117         0.015489
 O         1.934269         1.579889        -0.182313
 C         3.306630         1.215115         0.283006
 C         3.317853        -0.284388         0.242961
 O         1.994427        -0.712270        -0.056799
 H         3.809260         1.456014         3.407097
 H         4.809643         0.009174         3.157273
 H         5.191341         1.441561         2.244301
 H         1.560562        -0.354233         2.455789
 H         1.493065         1.444171         2.491953
 H        -0.351108         0.376010        -1.040851
 H        -0.318359        -1.023689         0.264151
 H        -0.811331         0.777655         0.607199
 H         4.016817         2.014509        -0.133603
 H         4.107024        -0.754158        -0.259594
