19
Iteration:   754charge 0 multiplicity 1
 C         4.453920         0.134881         2.407108
 C         3.302483         0.259185         1.538881
 C         1.930608        -0.337693         1.648882
 C         1.339748         0.391527         0.359354
 C        -0.122008         0.056487         0.047868
 O         1.557410         1.750058         0.639925
 C         2.976690         1.628794         0.900969
 C         3.417732         0.443903         0.016760
 O         2.283738        -0.038167        -0.717799
 H         4.171549         0.564862         3.424737
 H         4.836911        -0.845430         2.502499
 H         5.254613         0.713369         1.986976
 H         2.018332        -1.414677         1.482132
 H         1.204156        -0.180515         2.466855
 H        -0.499191         1.051254         0.136439
 H        -0.364292        -0.472184        -0.867727
 H        -0.534536        -0.536690         0.862857
 H         3.456042         2.541929         1.241423
 H         4.321138         0.273037        -0.457531
