19
Iteration:  4995charge 0 multiplicity 1
 C         4.355394         0.814353         2.576703
 C         3.224910         0.582703         1.597662
 C         1.745664         0.444066         1.883517
 C         1.286203         0.249496         0.380073
 C        -0.161903         0.348529         0.076578
 O         1.874957         1.458722        -0.288464
 C         3.231275         1.351446         0.211934
 C         3.402107        -0.215562         0.358889
 O         2.147964        -0.751565         0.055663
 H         4.433362         1.696716         3.278945
 H         4.451326        -0.065130         3.297461
 H         5.307463         0.763969         1.976056
 H         1.572878        -0.503515         2.467570
 H         1.312376         1.376947         2.324870
 H        -0.324016         0.167363        -1.018341
 H        -0.789665        -0.323982         0.676963
 H        -0.574688         1.316435         0.387534
 H         3.936097         2.107025        -0.251517
 H         4.222455        -0.783986         0.125820
