19
Iteration:  3126
 C         4.308877         0.858464         2.587961
 C         3.205248         0.524635         1.585966
 C         1.679630         0.525505         1.819780
 C         1.360300         0.423700         0.351760
 C        -0.127259         0.237236         0.139481
 O         1.982734         1.583578        -0.145459
 C         3.311501         1.181604         0.193945
 C         3.337233        -0.322052         0.390350
 O         2.079399        -0.754712        -0.072762
 H         4.137369         1.646265         3.339163
 H         4.797814        -0.132401         2.924953
 H         5.105386         1.290890         1.903689
 H         1.244206        -0.214363         2.453901
 H         1.474545         1.468998         2.227056
 H        -0.560860        -0.683603         0.476297
 H        -0.794339         0.972115         0.535314
 H        -0.475370         0.196493        -0.908401
 H         3.909341         2.018044         0.095275
 H         4.183806        -1.003499         0.178698
