19
Iteration:  4732
 C         4.368906         0.794569         2.662870
 C         3.243274         0.642904         1.590478
 C         1.847887         0.464148         1.916248
 C         1.316285         0.431314         0.421569
 C        -0.218573         0.216805         0.048729
 O         1.898077         1.507496        -0.163662
 C         3.186005         1.280476         0.189680
 C         3.379904        -0.250527         0.278815
 O         2.104684        -0.773068        -0.096357
 H         3.927872         1.523136         3.318130
 H         4.484197        -0.090686         3.254387
 H         5.323759         1.152477         2.350742
 H         1.642448        -0.480090         2.477604
 H         1.449582         1.413356         2.371127
 H        -0.172004         0.626386        -0.936116
 H        -0.527054        -0.795476         0.080452
 H        -0.852131         0.734165         0.757802
 H         3.910850         2.024175        -0.270126
 H         4.202975        -0.843994         0.018933
