19
Iteration:  1382charge 0 multiplicity 1
 C         4.358488         0.419119         2.511046
 C         3.246740         0.406697         1.594837
 C         1.859539        -0.033239         1.769566
 C         1.315182         0.335636         0.402659
 C        -0.121830         0.184258         0.041615
 O         1.707209         1.699884         0.324540
 C         3.155987         1.539040         0.591453
 C         3.421462         0.122963         0.100229
 O         2.203900        -0.395081        -0.450516
 H         4.192456         1.286940         3.249017
 H         4.626093        -0.522476         2.971837
 H         5.173065         0.647084         1.866895
 H         1.941022        -1.135310         1.837071
 H         1.317506         0.441381         2.628205
 H        -0.447087         1.045316        -0.556049
 H        -0.378478        -0.825092        -0.345467
 H        -0.775940         0.360998         0.839861
 H         3.648302         2.458148         0.413538
 H         4.215186        -0.335505        -0.454017
