19
Iteration:   958charge 0 multiplicity 1
 C         4.556518         0.097712         2.389474
 C         3.260268         0.390008         1.647448
 C         1.783851        -0.132093         1.766173
 C         1.336492         0.293009         0.350103
 C        -0.141568         0.006219        -0.008653
 O         1.615223         1.807494         0.537295
 C         3.011765         1.668482         0.777583
 C         3.407229         0.313999         0.038606
 O         2.266474        -0.118511        -0.619454
 H         4.473645         0.318711         3.375751
 H         4.845507        -0.957784         2.167280
 H         5.484703         0.638144         2.019357
 H         1.845187        -1.224158         1.752382
 H         1.136375         0.227919         2.567465
 H        -0.595971         0.825117        -0.505094
 H        -0.180431        -0.926986        -0.568209
 H        -0.654670        -0.288054         0.915040
 H         3.522082         2.560734         1.215032
 H         4.352977         0.166963        -0.579851
