19
Iteration:  2387
 C         4.367371         0.666054         2.665835
 C         3.227703         0.684871         1.605565
 C         1.777534         0.731237         1.868835
 C         1.332258         0.380344         0.348419
 C        -0.021169         0.174662         0.085241
 O         1.955333         1.561044        -0.220666
 C         3.237907         1.199116         0.140535
 C         3.290430        -0.266658         0.302514
 O         2.007925        -0.759787         0.036808
 H         3.872172         1.355274         3.368441
 H         4.475710        -0.254995         3.172808
 H         5.305465         1.143253         2.382831
 H         1.365362        -0.000747         2.562673
 H         1.276781         1.646091         2.160366
 H        -0.238316        -0.838359         0.534344
 H        -0.693789         0.839339         0.524080
 H        -0.227249        -0.096608        -0.989514
 H         3.902818         1.732525        -0.460584
 H         3.925841        -1.203208         0.048217
