19
Iteration:   779
 C         4.509942        -0.021251         2.350320
 C         3.306741         0.403394         1.579389
 C         1.880266        -0.326586         1.710849
 C         1.337863         0.251959         0.461482
 C        -0.153861         0.086824        -0.010412
 O         1.567668         1.687138         0.544279
 C         2.930627         1.768947         0.737763
 C         3.447013         0.537599         0.122011
 O         2.286176        -0.047546        -0.603878
 H         4.301142         0.163718         3.483396
 H         4.800486        -1.091759         2.206539
 H         5.366789         0.563252         2.034931
 H         1.959920        -1.399389         1.515447
 H         1.308597        -0.200908         2.677084
 H        -0.653200         0.793726         0.680597
 H        -0.295446         0.318300        -1.090871
 H        -0.489858        -0.942611         0.099931
 H         3.484782         2.689272         1.010960
 H         4.363575         0.473762        -0.505752
