19
Iteration:  4970
 C         4.361458         0.683686         2.588956
 C         3.243777         0.786419         1.584214
 C         1.752147         0.598761         1.936364
 C         1.309483         0.320329         0.456756
 C        -0.180433         0.343473         0.066685
 O         1.820322         1.402600        -0.241582
 C         3.211000         1.292973         0.152704
 C         3.392296        -0.202783         0.286915
 O         2.222751        -0.821037         0.043178
 H         4.106013         1.138286         3.580769
 H         4.258074        -0.386675         2.907634
 H         5.422988         0.895856         2.379999
 H         1.650707        -0.312971         2.396170
 H         1.156897         1.368410         2.303377
 H        -0.066500         0.385580        -1.081406
 H        -0.677896        -0.566771         0.297075
 H        -0.877632         1.132280         0.437449
 H         3.823604         1.955578        -0.482872
 H         4.359026        -0.817280         0.133232
