19
Iteration:  2402
 C         4.325536         0.719692         2.702927
 C         3.271188         0.663222         1.546831
 C         1.786276         0.684446         1.873350
 C         1.267866         0.489782         0.472717
 C        -0.185528         0.127676         0.071456
 O         1.942589         1.512622        -0.300482
 C         3.345777         1.206049         0.112120
 C         3.326713        -0.299992         0.401058
 O         2.016196        -0.760255        -0.017304
 H         4.234348         1.317841         3.639453
 H         4.560880        -0.314537         3.025706
 H         5.328959         1.013752         2.306204
 H         1.467773        -0.137996         2.520622
 H         1.469955         1.679784         2.226797
 H        -0.320784        -0.942990         0.217907
 H        -0.973245         0.745215         0.601976
 H        -0.254464         0.361015        -0.998018
 H         4.138608         1.915061        -0.276806
 H         4.267993        -0.791732         0.217257
