19
Iteration:  1416charge 0 multiplicity 1
 C         4.433944         0.271982         2.624019
 C         3.356515         0.428664         1.592636
 C         1.901823         0.059763         1.875518
 C         1.294554         0.357853         0.422234
 C        -0.161612         0.181478         0.002523
 O         1.599936         1.711309         0.242040
 C         3.074067         1.630981         0.519089
 C         3.409905         0.160494         0.040787
 O         2.227831        -0.498516        -0.426293
 H         4.376193         1.095759         3.383560
 H         4.361599        -0.677492         3.143421
 H         5.363527         0.404275         2.082604
 H         1.819140        -1.006722         2.152231
 H         1.516605         0.644367         2.745741
 H        -0.638823         1.172405        -0.078066
 H        -0.124686        -0.071963        -1.034138
 H        -0.658088        -0.563276         0.560553
 H         3.689377         2.528107         0.271257
 H         4.252880        -0.034573        -0.630551
