19
Iteration:  3683
 C         4.305313         0.682373         2.579407
 C         3.212396         0.631322         1.593985
 C         1.747508         0.547615         1.840940
 C         1.267033         0.419998         0.426118
 C        -0.182094         0.202119         0.100833
 O         1.948871         1.486916        -0.348012
 C         3.242043         1.299132         0.239326
 C         3.393838        -0.224377         0.376573
 O         2.153367        -0.719851         0.023888
 H         4.072058         1.530919         3.251076
 H         4.165207        -0.252841         3.165388
 H         5.342695         0.706320         2.108130
 H         1.520769        -0.203471         2.619176
 H         1.433366         1.546301         2.249273
 H        -0.306296         0.199231        -0.911382
 H        -0.395535        -0.747837         0.617658
 H        -0.737091         0.904779         0.622884
 H         3.981020         2.020866        -0.142687
 H         4.375520        -0.702571         0.279545
