19
Iteration:  2438charge 0 multiplicity 1
 C         4.374375         0.850249         2.629365
 C         3.198628         0.636026         1.603994
 C         1.725417         0.556433         1.808936
 C         1.289244         0.356301         0.409791
 C        -0.079334         0.382375         0.120960
 O         1.882836         1.450328        -0.287290
 C         3.315921         1.279683         0.181753
 C         3.350451        -0.296339         0.388181
 O         2.083758        -0.887320         0.028642
 H         4.268403         1.739821         3.260297
 H         4.264278        -0.163973         3.226910
 H         5.289618         0.786680         2.022802
 H         1.406844        -0.333976         2.439048
 H         1.257290         1.482825         2.252876
 H        -0.471340        -0.625194        -0.114934
 H        -0.828060         0.779990         0.857349
 H        -0.123346         0.955624        -0.811233
 H         4.044726         1.983594        -0.205995
 H         4.248267        -0.825851         0.061848
