19
Iteration:  2721charge 0 multiplicity 1
 C         4.393691         0.739802         2.701627
 C         3.247463         0.672543         1.665385
 C         1.735590         0.664219         1.804309
 C         1.272994         0.426525         0.416255
 C        -0.242762         0.229759         0.060421
 O         1.956584         1.518465        -0.320758
 C         3.295416         1.220255         0.101286
 C         3.369870        -0.301472         0.362867
 O         2.091496        -0.807825         0.058433
 H         4.264167         1.579587         3.455686
 H         4.433446        -0.218948         3.301437
 H         5.357927         0.818646         2.154820
 H         1.389890        -0.220505         2.378387
 H         1.298161         1.550046         2.288915
 H        -0.297916        -0.866054         0.364076
 H        -0.923719         0.703596         0.738699
 H        -0.334141         0.422729        -1.076933
 H         3.963713         2.042408        -0.322976
 H         4.132392        -1.027721         0.132601
