19
Iteration:   945
 C         4.472412         0.126497         2.371930
 C         3.236045         0.356841         1.531972
 C         1.915822        -0.242359         1.741101
 C         1.266692         0.398886         0.442063
 C        -0.042137        -0.008081        -0.013279
 O         1.633885         1.777797         0.540039
 C         3.029598         1.637284         0.807387
 C         3.408727         0.347160         0.094287
 O         2.185479        -0.086076        -0.619131
 H         4.369998         0.347313         3.417921
 H         4.747291        -0.939841         2.415546
 H         5.234204         0.773245         1.911112
 H         1.699238        -1.321480         1.915332
 H         1.486461         0.310079         2.561938
 H        -0.352594         0.587775        -0.872626
 H         0.061430        -0.992129        -0.434810
 H        -0.827709         0.119834         0.750202
 H         3.582818         2.581663         0.784854
 H         4.352520         0.082212        -0.314455
