19
Iteration:  4602
 C         4.383101         0.738095         2.587262
 C         3.198755         0.643175         1.640178
 C         1.733757         0.526446         1.886220
 C         1.326779         0.426783         0.330073
 C        -0.194315         0.070215         0.196686
 O         2.001910         1.582244        -0.156283
 C         3.254271         1.260651         0.227026
 C         3.332806        -0.207353         0.356199
 O         2.070745        -0.664946        -0.205901
 H         4.232937         1.335427         3.524545
 H         4.572532        -0.270371         3.038973
 H         5.272487         1.074178         2.030544
 H         1.551586        -0.356408         2.581733
 H         1.210241         1.433257         2.278151
 H        -0.448553        -0.387218        -0.831684
 H        -0.307293        -0.853611         0.842333
 H        -0.967991         0.856316         0.310620
 H         4.117302         1.908217        -0.024966
 H         4.102774        -0.929185        -0.078996
