19
Iteration:   542
 C         4.523187         0.091328         2.373324
 C         3.316536         0.159957         1.523169
 C         1.888759        -0.529103         1.566983
 C         1.354834         0.342160         0.415889
 C        -0.121021         0.057307         0.055825
 O         1.536780         1.684488         0.668724
 C         2.965728         1.592006         0.951214
 C         3.408286         0.629708         0.025175
 O         2.286120         0.220849        -0.691421
 H         4.167745         0.526208         3.294355
 H         4.979552        -0.996941         2.498706
 H         5.440767         0.735363         2.063746
 H         1.850238        -1.538042         1.064626
 H         1.297268        -0.580268         2.513355
 H        -0.766931         0.956346         0.263442
 H        -0.253359        -0.388758        -0.980169
 H        -0.643907        -0.637897         0.761439
 H         3.318263         2.612621         1.087190
 H         4.322217         0.720720        -0.565642
