19
Iteration:  2521charge 0 multiplicity 1
 C         4.353003         0.734132         2.643813
 C         3.265539         0.696153         1.563259
 C         1.693145         0.604640         1.854444
 C         1.261000         0.261300         0.492800
 C        -0.244895         0.249632         0.080922
 O         2.004483         1.492785        -0.274707
 C         3.319459         1.254581         0.186672
 C         3.367318        -0.313505         0.314153
 O         2.071343        -0.715236        -0.004002
 H         4.210163         1.788967         3.018991
 H         4.211691         0.077755         3.420676
 H         5.414354         0.693050         2.315922
 H         1.639311        -0.159674         2.600632
 H         1.267878         1.523046         2.231465
 H        -0.754634        -0.602698         0.447869
 H        -0.542062         1.312797         0.314184
 H        -0.138353         0.116861        -0.967193
 H         4.045243         1.893917        -0.365866
 H         4.177371        -0.959756         0.373177
