19
Iteration:  3041charge 0 multiplicity 1
 C         4.384752         0.685772         2.663844
 C         3.296362         0.648363         1.633560
 C         1.673685         0.586916         1.920683
 C         1.307226         0.390604         0.396778
 C        -0.180196         0.196175         0.105571
 O         1.913291         1.444784        -0.317441
 C         3.252306         1.267820         0.261572
 C         3.363606        -0.176828         0.262988
 O         2.117464        -0.688087        -0.082912
 H         4.651675         1.666802         2.976113
 H         4.129117         0.106176         3.575099
 H         5.325395         0.217819         2.343406
 H         1.467727        -0.288190         2.539731
 H         1.289210         1.515812         2.357495
 H        -0.786784         0.072405         0.993859
 H        -0.518859         1.002901        -0.477143
 H        -0.307016        -0.680196        -0.560367
 H         3.910324         2.055603         0.019025
 H         4.094533        -0.987146         0.255464
