19
Iteration:  4765charge 0 multiplicity 1
 C         4.251210         0.613067         2.607907
 C         3.289869         0.759260         1.580861
 C         1.849530         0.503664         1.905981
 C         1.331108         0.357707         0.477998
 C        -0.125699         0.258490         0.028827
 O         1.863590         1.458833        -0.215221
 C         3.110479         1.347842         0.115272
 C         3.395537        -0.157781         0.227121
 O         2.189016        -0.807287         0.088371
 H         3.879058         1.178917         3.449782
 H         4.370223        -0.397733         2.940975
 H         5.188447         1.061052         2.395993
 H         1.493368        -0.306549         2.596322
 H         1.334414         1.365584         2.439500
 H        -0.337316         0.676838        -0.983646
 H        -0.681793        -0.615049         0.099844
 H        -0.582097         1.002418         0.684494
 H         3.887433         1.996763        -0.324377
 H         4.305572        -0.605270        -0.030537
