19
Iteration:  4749charge 0 multiplicity 1
 C         4.283342         0.721756         2.701710
 C         3.312747         0.624216         1.474423
 C         1.779868         0.476373         1.941069
 C         1.238528         0.252990         0.502701
 C        -0.134350         0.315722         0.042680
 O         1.803706         1.484385        -0.247402
 C         3.290664         1.341124         0.126188
 C         3.432799        -0.109762         0.237984
 O         2.132710        -0.777864         0.092292
 H         3.978359         1.348411         3.602738
 H         4.471289        -0.356721         3.013849
 H         5.319347         1.078456         2.355254
 H         1.736354        -0.494717         2.416354
 H         1.417118         1.322971         2.484426
 H        -0.252676         0.724733        -0.995310
 H        -0.504572        -0.797216        -0.106928
 H        -0.812184         0.997854         0.604781
 H         3.888921         2.122333        -0.374188
 H         4.249435        -0.748868        -0.270538
