19
Iteration:  3736charge 0 multiplicity 1
 C         4.343854         0.996848         2.674065
 C         3.358915         0.489136         1.638085
 C         1.832668         0.455594         1.976704
 C         1.232389         0.359336         0.439752
 C        -0.193399         0.279374        -0.098522
 O         1.891730         1.509706        -0.167536
 C         3.275421         1.239380         0.237882
 C         3.359464        -0.346934         0.289780
 O         2.021811        -0.752099        -0.090948
 H         4.182648         2.089997         2.806462
 H         4.192761         0.436182         3.604516
 H         5.368680         0.825356         2.287728
 H         1.658873        -0.476361         2.540127
 H         1.682872         1.348513         2.591376
 H        -0.151608         0.535425        -1.133882
 H        -0.615197        -0.720743         0.023129
 H        -0.661168         0.998072         0.487847
 H         3.943130         2.012498        -0.156256
 H         4.185390        -0.878921        -0.240644
