19
Iteration:   329charge 0 multiplicity 1
 C         4.555965        -0.142027         2.227688
 C         3.289546         0.255347         1.490972
 C         1.972805        -0.494463         1.473690
 C         1.359097         0.380053         0.310301
 C        -0.027885        -0.057164         0.006094
 O         1.403085         1.767694         0.935021
 C         2.803000         1.656499         1.122870
 C         3.433423         0.695045         0.034367
 O         2.317134         0.238977        -0.719139
 H         4.509628        -0.008814         3.375614
 H         5.098422        -0.993927         1.826357
 H         5.338953         0.584882         2.001452
 H         2.000872        -1.450392         0.884516
 H         1.387261        -0.509974         2.355624
 H        -0.711078         0.803238        -0.199479
 H        -0.158657        -0.748831        -0.837426
 H        -0.349647        -0.637021         0.877570
 H         3.300492         2.528391         1.524036
 H         4.333985         0.829978        -0.667709
