19
Iteration:  2414
 C         4.325194         0.720922         2.608842
 C         3.241420         0.632470         1.582906
 C         1.764747         0.666390         1.969594
 C         1.252059         0.390200         0.398864
 C        -0.286225         0.207980         0.046016
 O         1.949022         1.461381        -0.350847
 C         3.367188         1.230211         0.183321
 C         3.408574        -0.286746         0.345045
 O         2.135695        -0.684148         0.078537
 H         3.905080         1.422484         3.368341
 H         4.332166        -0.312377         3.096930
 H         5.299884         1.054772         2.205944
 H         1.536477        -0.197867         2.637487
 H         1.424939         1.594552         2.497241
 H        -0.564985        -0.834676         0.040570
 H        -0.998111         0.723688         0.799564
 H        -0.490272         0.589090        -0.953957
 H         4.190317         1.784363        -0.389351
 H         4.058584        -1.022428         0.003051
