19
Iteration:  3710
 C         4.300551         0.855013         2.770922
 C         3.323296         0.689770         1.577249
 C         1.803655         0.534812         1.888203
 C         1.242833         0.355372         0.548023
 C        -0.080542         0.227269        -0.078512
 O         1.915416         1.522382        -0.084993
 C         3.268294         1.221484         0.049636
 C         3.319287        -0.293873         0.138089
 O         2.021053        -0.813478         0.020874
 H         4.127243         1.818990         3.254999
 H         4.064302         0.028422         3.447250
 H         5.322455         0.746704         2.423241
 H         1.796654        -0.284600         2.620227
 H         1.486605         1.446979         2.390159
 H         0.079648         0.496300        -1.227243
 H        -0.428478        -0.808345         0.070687
 H        -0.711477         0.999783         0.534286
 H         3.855683         1.934030        -0.552780
 H         4.210392        -0.830691        -0.088181
