19
Iteration:  4739charge 0 multiplicity 1
 C         4.326199         0.760115         2.687499
 C         3.356624         0.653604         1.562738
 C         1.824586         0.461517         1.889546
 C         1.262712         0.366695         0.524483
 C        -0.195599         0.281356         0.024222
 O         1.858266         1.491949        -0.207441
 C         3.212562         1.323031         0.127095
 C         3.395249        -0.204314         0.257213
 O         2.103165        -0.800469        -0.043208
 H         3.946326         1.494234         3.454354
 H         4.508019        -0.215897         3.207884
 H         5.321270         1.167245         2.334220
 H         1.558394        -0.409776         2.476803
 H         1.368178         1.254025         2.452540
 H        -0.225135         0.651730        -0.993990
 H        -0.498589        -0.834770         0.051457
 H        -0.921048         0.759489         0.707805
 H         3.952367         2.122561        -0.064160
 H         4.337930        -0.786192         0.071403
