19
Iteration:  1156charge 0 multiplicity 1
 C         4.502392         0.207849         2.532713
 C         3.251871         0.388253         1.626195
 C         1.798147        -0.168813         1.776207
 C         1.323209         0.414343         0.424627
 C        -0.130802        -0.011482         0.062414
 O         1.700359         1.826130         0.326729
 C         3.071991         1.602003         0.586768
 C         3.403432         0.255887         0.062938
 O         2.192428        -0.196297        -0.546576
 H         4.224250         0.437128         3.545162
 H         4.847597        -0.866179         2.677794
 H         5.429783         0.850845         2.231274
 H         1.634001        -1.183628         2.013036
 H         1.442769         0.515965         2.524272
 H        -0.635843         0.486319        -0.769537
 H        -0.140592        -1.077124        -0.120742
 H        -0.735087         0.130285         0.931126
 H         3.676744         2.525820         0.728334
 H         4.241995        -0.144107        -0.540205
