19
Iteration:  4563
 C         4.307030         0.840695         2.621927
 C         3.267391         0.524137         1.613263
 C         1.805373         0.463804         1.932096
 C         1.299791         0.397514         0.453787
 C        -0.159405         0.286816         0.044895
 O         1.879064         1.492487        -0.162521
 C         3.258084         1.244934         0.200935
 C         3.351792        -0.189659         0.201882
 O         2.097614        -0.771969        -0.028628
 H         4.054526         1.273248         3.589039
 H         4.745177        -0.161688         2.744166
 H         5.093781         1.480797         2.190326
 H         1.373691        -0.423528         2.344433
 H         1.520396         1.427771         2.355732
 H        -0.223842         0.427222        -1.061949
 H        -0.295565        -0.760516         0.195472
 H        -0.697472         0.940872         0.737282
 H         3.947168         2.071944        -0.133775
 H         4.210772        -0.655459        -0.159077
