19
Iteration:  2573
 C         4.292400         0.723551         2.610887
 C         3.250939         0.761125         1.606424
 C         1.778856         0.623365         1.945532
 C         1.317259         0.340238         0.419506
 C        -0.255387         0.169087         0.035523
 O         2.006974         1.523195        -0.279871
 C         3.334511         1.197490         0.136462
 C         3.367431        -0.284914         0.338484
 O         2.028303        -0.727805         0.033245
 H         4.137565         1.283800         3.585723
 H         4.477512        -0.403729         2.891285
 H         5.306945         1.064516         2.266279
 H         1.418299        -0.182182         2.607123
 H         1.331688         1.560301         2.286054
 H        -0.824695        -0.062440         0.926505
 H        -0.584134         1.184239        -0.346345
 H        -0.388155        -0.626861        -0.690965
 H         4.219681         1.864725        -0.183343
 H         4.228628        -0.793810         0.053574
