19
Iteration:  1650charge 0 multiplicity 1
 C         4.387705         0.495426         2.619018
 C         3.278033         0.465810         1.507253
 C         1.790420         0.121037         1.857592
 C         1.231799         0.435651         0.396932
 C        -0.211827         0.131274         0.093513
 O         1.833776         1.689189         0.127444
 C         3.221659         1.502472         0.469564
 C         3.443628        -0.043155         0.147600
 O         2.159068        -0.515526        -0.370875
 H         4.017185         0.983141         3.512542
 H         4.789070        -0.510378         2.993206
 H         5.311730         1.205572         2.439563
 H         1.609852        -0.856094         2.359007
 H         1.428533         1.017590         2.402684
 H        -0.878445         0.952729        -0.246568
 H        -0.157414        -0.594235        -0.797242
 H        -0.868198        -0.222539         0.874014
 H         3.798253         2.417960         0.213108
 H         4.286085        -0.487865        -0.389113
