19
Iteration:  4774charge 0 multiplicity 1
 C         4.296671         0.620412         2.644765
 C         3.254525         0.749178         1.514261
 C         1.815840         0.573536         1.899459
 C         1.271272         0.347031         0.476178
 C        -0.131605         0.268944         0.068764
 O         1.823987         1.484562        -0.218787
 C         3.222186         1.302706         0.151475
 C         3.394759        -0.145767         0.322133
 O         2.183816        -0.835763        -0.019085
 H         4.039022         1.166804         3.570586
 H         4.419933        -0.449501         2.858528
 H         5.290425         0.974426         2.312524
 H         1.589751        -0.377729         2.422509
 H         1.341886         1.487839         2.257297
 H        -0.331186         0.443115        -0.968092
 H        -0.405626        -0.776395         0.319636
 H        -0.756991         0.958444         0.632714
 H         3.816337         2.213952        -0.180558
 H         4.307373        -0.643062         0.219850
