19
Iteration:  2493charge 0 multiplicity 1
 C         4.323492         0.917631         2.605088
 C         3.250334         0.512813         1.575627
 C         1.751302         0.557278         1.922774
 C         1.281456         0.506277         0.401802
 C        -0.075960         0.244757         0.022284
 O         1.976881         1.566868        -0.222999
 C         3.230008         1.127365         0.239651
 C         3.310228        -0.404684         0.261316
 O         2.043703        -0.753783         0.032267
 H         4.193993         2.019670         2.703566
 H         3.940110         0.394695         3.625668
 H         5.343382         0.624910         2.290807
 H         1.500338        -0.392032         2.515002
 H         1.612436         1.523546         2.522032
 H        -0.174482        -0.873298         0.228479
 H        -0.706913         0.843286         0.704968
 H        -0.259405         0.499761        -1.055915
 H         3.971208         1.670970        -0.224075
 H         4.316402        -0.887505        -0.035946
