19
Iteration:  1842
 C         4.364285         0.629309         2.614232
 C         3.303461         0.516620         1.646436
 C         1.843158         0.221851         1.942610
 C         1.300749         0.354932         0.434694
 C        -0.173321         0.282825         0.071151
 O         1.776742         1.607648        -0.041452
 C         3.181675         1.429718         0.344942
 C         3.422277        -0.118028         0.166601
 O         2.138558        -0.648593        -0.321163
 H         3.894775         1.133931         3.583040
 H         4.784948        -0.337864         2.903427
 H         5.253657         1.249929         2.519714
 H         1.630364        -0.801723         2.321643
 H         1.406798         0.912621         2.688965
 H        -0.450383        -0.186156        -0.882653
 H        -0.932060        -0.074457         0.919718
 H        -0.436262         1.382313        -0.109265
 H         3.948808         2.094609         0.133495
 H         4.264955        -0.547834        -0.364522
