19
Iteration:  4053
 C         4.332466         0.887853         2.682513
 C         3.327740         0.470092         1.541283
 C         1.799612         0.477955         1.990712
 C         1.228818         0.410956         0.494707
 C        -0.204533         0.196573        -0.049421
 O         1.975240         1.544926        -0.142403
 C         3.252656         1.215736         0.163485
 C         3.374110        -0.234878         0.187966
 O         2.063275        -0.714458        -0.024292
 H         3.878440         1.783931         3.067367
 H         4.352377         0.203885         3.515544
 H         5.322264         1.205513         2.326224
 H         1.464307        -0.413407         2.446524
 H         1.501569         1.276984         2.651553
 H        -0.013896        -0.214402        -1.054499
 H        -0.876393        -0.439060         0.572435
 H        -0.702358         1.193453        -0.028528
 H         3.916013         1.977210        -0.157259
 H         4.133387        -0.983327        -0.240209
