19
Iteration:  2094
 C         4.377907         0.579842         2.668423
 C         3.317745         0.498759         1.582969
 C         1.707439         0.557190         1.870591
 C         1.254860         0.423032         0.426055
 C        -0.219355         0.112585         0.081960
 O         1.900402         1.607914        -0.148602
 C         3.237188         1.316581         0.223201
 C         3.417496        -0.181457         0.254131
 O         2.124873        -0.614346        -0.085956
 H         4.297198         1.677252         3.068770
 H         4.367754        -0.165476         3.461994
 H         5.423033         0.598615         2.228871
 H         1.301299        -0.305776         2.356473
 H         1.415392         1.501601         2.282339
 H        -0.234005        -0.734205        -0.674694
 H        -0.754831        -0.227005         0.968135
 H        -0.781626         0.987565        -0.228602
 H         4.027658         1.799095        -0.328979
 H         4.333586        -0.726677        -0.102917
