19
Iteration:  4662
 C         4.387744         0.741392         2.665460
 C         3.336262         0.673302         1.595048
 C         1.746664         0.422491         1.921936
 C         1.300792         0.266610         0.468289
 C        -0.178356         0.248392         0.036321
 O         1.829703         1.523469        -0.115281
 C         3.202924         1.344522         0.124402
 C         3.361341        -0.143216         0.219161
 O         2.127197        -0.735638        -0.069244
 H         4.677491         1.752069         3.035511
 H         4.030490         0.019085         3.450873
 H         5.304416         0.187626         2.313414
 H         1.689114        -0.503015         2.479456
 H         1.303319         1.217760         2.492791
 H         0.194790        -0.024612        -0.939117
 H        -0.927649        -0.410118         0.539261
 H        -0.532890         1.309559         0.061371
 H         3.801980         2.051173        -0.357904
 H         4.176029        -0.871607         0.075651
