19
Iteration:  4457
 C         4.342135         0.699950         2.617510
 C         3.297133         0.640457         1.514284
 C         1.824637         0.490358         1.898958
 C         1.285217         0.372489         0.406577
 C        -0.106752         0.089986         0.052122
 O         1.868537         1.609222        -0.127472
 C         3.223910         1.342826         0.198490
 C         3.377445        -0.201781         0.296483
 O         2.038883        -0.722909        -0.062109
 H         4.613750         1.660514         3.062914
 H         3.907265         0.184234         3.474808
 H         5.183417         0.037727         2.391047
 H         1.470553        -0.286182         2.646094
 H         1.450695         1.406216         2.413125
 H        -0.168522        -0.321660        -0.966532
 H        -0.492304        -0.558994         0.896170
 H        -0.662589         1.059846        -0.004729
 H         3.932823         2.143397        -0.190340
 H         4.238419        -0.739915         0.059450
