19
Iteration:  3453
 C         4.314191         0.854161         2.545104
 C         3.172527         0.615262         1.649799
 C         1.682369         0.590569         1.867022
 C         1.308727         0.355509         0.388144
 C        -0.110029         0.217622         0.136850
 O         2.008177         1.472588        -0.234643
 C         3.289148         1.177827         0.253419
 C         3.335208        -0.260226         0.428751
 O         2.099227        -0.713062        -0.141122
 H         4.284771         1.735931         3.198851
 H         4.464547        -0.117368         2.978130
 H         5.187622         1.046238         1.902136
 H         1.410158        -0.319783         2.438219
 H         1.170018         1.450702         2.301336
 H        -0.410769        -0.254338        -0.839288
 H        -0.527822        -0.417780         0.933493
 H        -0.469326         1.260477         0.170420
 H         4.062986         1.855305        -0.053726
 H         4.124805        -1.029175         0.315726
