19
Iteration:  4643
 C         4.278642         0.599486         2.632725
 C         3.298733         0.732221         1.496882
 C         1.919211         0.474790         1.949990
 C         1.244866         0.305203         0.473697
 C        -0.136020         0.274036        -0.030653
 O         1.792509         1.497563        -0.117660
 C         3.165457         1.350845         0.142833
 C         3.419811        -0.147326         0.247143
 O         2.170465        -0.783025         0.021422
 H         4.356748         1.579181         3.066998
 H         3.929504        -0.057187         3.382299
 H         5.272490         0.308239         2.374252
 H         1.767299        -0.353748         2.687352
 H         1.479669         1.338283         2.495220
 H        -0.274170        -0.069259        -1.003728
 H        -0.784638        -0.261495         0.714842
 H        -0.658137         1.196975         0.027478
 H         3.718720         2.166991        -0.327684
 H         4.416043        -0.382801        -0.261037
