19
Iteration:  3755
 C         4.283591         0.926310         2.460148
 C         3.170961         0.543474         1.623104
 C         1.666456         0.372557         1.907605
 C         1.349544         0.369840         0.405153
 C        -0.140743         0.330483         0.099433
 O         1.973810         1.512039        -0.165367
 C         3.268261         1.210895         0.273221
 C         3.397028        -0.259938         0.327516
 O         2.152179        -0.733424        -0.042868
 H         4.153873         2.014359         2.574576
 H         4.274798         0.405916         3.414350
 H         5.187790         0.774481         1.886146
 H         1.237284        -0.575686         2.298837
 H         1.213148         1.231116         2.373175
 H        -0.170625         0.407775        -1.078874
 H        -0.417833        -0.718123         0.333867
 H        -0.825879         1.091737         0.608548
 H         4.112686         1.896763         0.111675
 H         4.201488        -0.940680         0.224130
