19
Iteration:  3961
 C         4.298534         0.734647         2.599099
 C         3.220684         0.702158         1.603737
 C         1.743030         0.528322         1.867525
 C         1.278922         0.374562         0.414504
 C        -0.162417         0.147670         0.085021
 O         1.933986         1.544905        -0.170246
 C         3.340109         1.196569         0.119465
 C         3.372791        -0.203275         0.344340
 O         2.116032        -0.710583        -0.059923
 H         4.349534         1.650650         3.281185
 H         4.112586        -0.028277         3.398506
 H         5.340204         0.688807         2.245651
 H         1.431781        -0.253195         2.615192
 H         1.278785         1.462055         2.244500
 H        -0.433322         0.346507        -0.992547
 H        -0.612818        -0.776584         0.379820
 H        -0.832297         0.769931         0.660224
 H         4.148014         1.831909        -0.140401
 H         4.239621        -0.833859         0.147079
