19
Iteration:  3369charge 0 multiplicity 1
 C         4.284657         0.733549         2.644081
 C         3.336965         0.625785         1.544179
 C         1.750519         0.560465         1.866730
 C         1.236378         0.375923         0.482852
 C        -0.237426         0.250613        -0.001487
 O         1.911410         1.511439        -0.270584
 C         3.259456         1.272436         0.177199
 C         3.445472        -0.236855         0.296754
 O         2.161791        -0.777954         0.110240
 H         4.306215         1.738585         3.026985
 H         4.044337         0.159674         3.572762
 H         5.254617         0.384531         2.265238
 H         1.551195        -0.234649         2.558619
 H         1.325169         1.506230         2.188706
 H        -0.233952         0.386895        -1.093287
 H        -0.781474        -0.644590         0.434833
 H        -0.765421         1.076835         0.431116
 H         4.009078         1.857777        -0.266834
 H         4.130609        -0.979425        -0.108647
