19
Iteration:    50charge 0 multiplicity 1
 C         4.518173        -0.171599         2.133452
 C         3.303987         0.259738         1.419225
 C         2.070118        -0.653973         1.293707
 C         1.370067         0.292404         0.346425
 C        -0.028282        -0.074549        -0.033575
 O         1.365009         1.495346         1.161580
 C         2.791337         1.673604         1.237139
 C         3.454235         0.939887         0.006682
 O         2.295702         0.560251        -0.740815
 H         4.371019        -0.110208         3.240280
 H         4.826584        -1.235416         1.802399
 H         5.421965         0.436212         1.847120
 H         2.314231        -1.656560         0.852223
 H         1.493148        -0.910919         2.238803
 H        -0.172566        -1.049083        -0.552237
 H        -0.473874        -0.102593         0.969044
 H        -0.524595         0.705862        -0.656422
 H         3.094523         2.521955         1.909344
 H         4.228041         1.352639        -0.629156
