19
Iteration:  2385charge 0 multiplicity 1
 C         4.357247         0.677727         2.652076
 C         3.208479         0.666010         1.578769
 C         1.772194         0.735342         1.888882
 C         1.346911         0.360222         0.341205
 C        -0.026206         0.174158         0.081030
 O         1.946363         1.565449        -0.219916
 C         3.258597         1.202893         0.157317
 C         3.291275        -0.276979         0.291126
 O         2.021361        -0.747146         0.052888
 H         3.917978         1.343306         3.376712
 H         4.489539        -0.301879         3.214036
 H         5.316521         1.120555         2.425977
 H         1.342353        -0.025955         2.583956
 H         1.233153         1.669737         2.144757
 H        -0.279707        -0.798813         0.552621
 H        -0.686927         0.939206         0.501906
 H        -0.240688        -0.144714        -0.937229
 H         3.936827         1.723513        -0.514312
 H         3.906990        -1.112479         0.004326
