19
Iteration:   660charge 0 multiplicity 1
 C         4.551033        -0.006063         2.324860
 C         3.251415         0.291924         1.551740
 C         1.964510        -0.381541         1.641148
 C         1.348466         0.369447         0.348335
 C        -0.155711         0.049108         0.094095
 O         1.496627         1.717640         0.543231
 C         2.910175         1.710333         0.994639
 C         3.444421         0.528820         0.078976
 O         2.348187         0.026275        -0.664415
 H         4.319938         0.095772         3.352197
 H         4.728034        -1.102632         2.083848
 H         5.456417         0.496960         2.044828
 H         1.709340        -1.412771         1.567288
 H         1.268580         0.022830         2.412658
 H        -0.077928        -0.813176        -0.591792
 H        -0.728805        -0.008853         1.048730
 H        -0.637377         0.897806        -0.451986
 H         3.274716         2.721077         1.084240
 H         4.313264         0.469033        -0.441971
