19
Iteration:  1028charge 0 multiplicity 1
 C         4.410705         0.240363         2.616176
 C         3.380215         0.289709         1.443825
 C         1.897188        -0.214724         1.715228
 C         1.309147         0.349526         0.434061
 C        -0.224814         0.056208         0.031490
 O         1.677692         1.780789         0.594262
 C         3.058681         1.601756         0.633417
 C         3.436016         0.282350        -0.044688
 O         2.205521        -0.164235        -0.605864
 H         3.998577         0.925677         3.382208
 H         4.823198        -0.708408         2.884862
 H         5.294541         0.787656         2.369489
 H         2.006730        -1.294891         1.728850
 H         1.313398         0.227266         2.566597
 H        -0.908168        -0.004079         0.928889
 H        -0.532716         0.925593        -0.587793
 H        -0.208463        -0.819669        -0.624086
 H         3.494243         2.553497         0.805143
 H         4.297427         0.280731        -0.651278
