19
Iteration:  2529charge 0 multiplicity 1
 C         4.347569         0.737714         2.609473
 C         3.229255         0.659939         1.582063
 C         1.699837         0.629023         1.889247
 C         1.244963         0.276839         0.444010
 C        -0.186730         0.258600         0.087261
 O         2.004247         1.462071        -0.355887
 C         3.235818         1.251166         0.221547
 C         3.399451        -0.218172         0.314416
 O         2.105924        -0.748347         0.036909
 H         4.369434         1.552311         3.392358
 H         4.214221        -0.176146         3.313728
 H         5.432592         0.628255         2.337978
 H         1.535554        -0.138171         2.673504
 H         1.442479         1.590866         2.342325
 H        -0.889933        -0.369230         0.670425
 H        -0.485425         1.292450         0.258963
 H        -0.300580         0.040020        -1.015746
 H         4.038940         1.930532        -0.252257
 H         4.157662        -0.942519         0.165306
