19
Iteration:  1180
 C         4.352864         0.309253         2.456402
 C         3.227532         0.350776         1.524598
 C         1.852119        -0.125121         1.761002
 C         1.347861         0.365716         0.439919
 C        -0.154281         0.150224         0.107157
 O         1.639625         1.706988         0.348948
 C         3.095665         1.604243         0.709066
 C         3.446365         0.264168         0.018259
 O         2.309368        -0.320634        -0.531622
 H         4.007888         0.617040         3.450745
 H         4.631074        -0.779651         2.748466
 H         5.338787         0.834097         2.146926
 H         1.910339        -1.189457         1.869946
 H         1.454561         0.385990         2.623468
 H        -0.630307         1.143532        -0.013323
 H        -0.452737        -0.492260        -0.701108
 H        -0.615568        -0.249142         1.036029
 H         3.630630         2.556358         0.593571
 H         4.439796        -0.041567        -0.463422
