19
Iteration:  2929charge 0 multiplicity 1
 C         4.292123         0.872343         2.612061
 C         3.245731         0.596186         1.578973
 C         1.766170         0.552595         1.982120
 C         1.259980         0.427074         0.384102
 C        -0.081909         0.283069         0.069692
 O         1.949415         1.476648        -0.261864
 C         3.248922         1.175581         0.212789
 C         3.349051        -0.307698         0.382388
 O         2.095573        -0.778811        -0.086082
 H         3.995508         1.559050         3.413832
 H         4.712910        -0.109283         2.976310
 H         5.105838         1.261105         1.983618
 H         1.292910        -0.342324         2.330758
 H         1.384007         1.477502         2.353061
 H        -0.543826        -0.470931         0.665841
 H        -0.581527         1.215866         0.443358
 H        -0.276434         0.159045        -0.940625
 H         4.043715         1.873068         0.052465
 H         4.106874        -1.010721         0.184735
