19
Iteration:   445
 C         4.550502         0.003112         2.276107
 C         3.252926         0.232582         1.520168
 C         1.854039        -0.495957         1.488301
 C         1.335765         0.341462         0.341551
 C        -0.092626         0.070912         0.065926
 O         1.456014         1.644853         0.839093
 C         2.937468         1.635619         0.979004
 C         3.433145         0.737351         0.015379
 O         2.361668         0.161229        -0.669025
 H         4.496168         0.084307         3.352679
 H         5.048711        -0.892205         1.864105
 H         5.389529         0.752909         1.981651
 H         1.828869        -1.587558         1.090526
 H         1.221946        -0.261019         2.389734
 H        -0.126863        -1.019284        -0.156103
 H        -0.746519         0.186820         0.951602
 H        -0.435637         0.569546        -0.858801
 H         3.464145         2.396814         1.551818
 H         4.429989         0.589193        -0.543197
