19
Iteration:   443
 C         4.554522         0.018669         2.288659
 C         3.264288         0.224280         1.496156
 C         1.831086        -0.500020         1.497245
 C         1.340366         0.339505         0.348586
 C        -0.084776         0.069374         0.060823
 O         1.456285         1.644953         0.844235
 C         2.926161         1.630367         0.992882
 C         3.437775         0.724691        -0.003267
 O         2.355593         0.172027        -0.678340
 H         4.481405         0.088834         3.351874
 H         5.077487        -0.957316         1.882449
 H         5.361409         0.777730         1.980689
 H         1.874384        -1.499318         1.080828
 H         1.249767        -0.300829         2.443015
 H        -0.110984        -1.024810        -0.062590
 H        -0.751305         0.279260         0.924686
 H        -0.381451         0.544360        -0.895897
 H         3.468022         2.358396         1.549297
 H         4.415123         0.597247        -0.500331
