19
Iteration:  3310charge 0 multiplicity 1
 C         4.327831         0.752488         2.603326
 C         3.262833         0.646835         1.600669
 C         1.746434         0.620160         1.880713
 C         1.283727         0.444406         0.409456
 C        -0.272430         0.135222         0.025474
 O         2.037557         1.514500        -0.255355
 C         3.335158         1.229045         0.178783
 C         3.383673        -0.239076         0.337219
 O         2.036313        -0.786539         0.059991
 H         3.949926         1.538854         3.247025
 H         4.621855        -0.125127         3.102127
 H         5.225264         1.246259         2.265154
 H         1.485541        -0.220270         2.572371
 H         1.363068         1.567815         2.294565
 H        -0.613242         0.428239        -0.992199
 H        -0.472859        -0.917578         0.108714
 H        -0.947372         0.807042         0.687221
 H         4.164740         1.968504        -0.198460
 H         4.157646        -1.039526         0.177002
