19
Iteration:   687
 C         4.450302         0.042731         2.459448
 C         3.297494         0.330049         1.493804
 C         2.016577        -0.362973         1.613697
 C         1.317531         0.290089         0.419974
 C        -0.197273         0.109484         0.007107
 O         1.481162         1.684655         0.737569
 C         3.013901         1.646445         0.803158
 C         3.429009         0.576904        -0.078290
 O         2.339010        -0.027997        -0.607077
 H         4.178496         0.388674         3.500967
 H         4.609138        -1.020380         2.553804
 H         5.410542         0.513863         2.112991
 H         2.004693        -1.427035         1.265383
 H         1.443710        -0.328736         2.524578
 H        -0.228794        -0.105388        -1.052866
 H        -0.834343        -0.482437         0.664279
 H        -0.540893         1.129836         0.161174
 H         3.503925         2.607965         0.979579
 H         4.313183         0.632245        -0.844469
