19
Iteration:  1206
 C         4.438790         0.341773         2.643010
 C         3.322074         0.363233         1.551443
 C         1.915237        -0.136991         1.736334
 C         1.340622         0.224028         0.444060
 C        -0.198985         0.232710         0.034589
 O         1.610452         1.711484         0.433988
 C         3.058164         1.582331         0.534910
 C         3.468109         0.254348        -0.014926
 O         2.206331        -0.322960        -0.525407
 H         4.212830         0.936351         3.617561
 H         4.562829        -0.652533         3.035274
 H         5.368514         0.673607         2.266816
 H         2.096522        -1.258579         1.814585
 H         1.408182         0.279992         2.649156
 H        -0.570419         1.119699         0.586668
 H        -0.363460         0.362239        -1.083639
 H        -0.884020        -0.634320         0.303098
 H         3.593906         2.498767         0.329226
 H         4.292316         0.114315        -0.639456
