19
Iteration:  2569
 C         4.317444         0.717699         2.625538
 C         3.250090         0.744351         1.580652
 C         1.751044         0.626841         1.913671
 C         1.322119         0.379496         0.431617
 C        -0.250471         0.188505         0.058733
 O         1.993785         1.521288        -0.277396
 C         3.300651         1.223758         0.120391
 C         3.380359        -0.268260         0.358441
 O         2.066456        -0.753660         0.045308
 H         4.122825         1.219642         3.538613
 H         4.330801        -0.389040         2.726740
 H         5.274995         1.008515         2.231965
 H         1.334615        -0.245899         2.476629
 H         1.271886         1.566095         2.283756
 H        -0.840025        -0.144979         0.935123
 H        -0.417996         1.152785        -0.315884
 H        -0.408843        -0.612418        -0.716673
 H         4.190845         1.764788        -0.159734
 H         4.243989        -0.972705         0.209576
