19
Iteration:  4453
 C         4.308128         0.683303         2.623660
 C         3.308448         0.609282         1.533640
 C         1.866396         0.483193         1.905801
 C         1.300367         0.357214         0.409361
 C        -0.075377         0.141024         0.043841
 O         1.824384         1.591813        -0.164228
 C         3.192120         1.361788         0.211368
 C         3.373278        -0.204330         0.275164
 O         2.068732        -0.693046        -0.018071
 H         4.614218         1.682260         2.956142
 H         3.900993         0.141287         3.488594
 H         5.198491         0.090659         2.371232
 H         1.588753        -0.342806         2.598502
 H         1.447351         1.428047         2.393653
 H        -0.154031        -0.383657        -0.999953
 H        -0.595241        -0.450803         0.795059
 H        -0.729072         1.050143         0.037465
 H         3.811838         2.076418        -0.244030
 H         4.264124        -0.870576         0.050384
