19
Iteration:  2815charge 0 multiplicity 1
 C         4.255995         0.871538         2.592039
 C         3.268196         0.562403         1.572361
 C         1.696324         0.617462         1.932116
 C         1.353276         0.457821         0.431969
 C        -0.085491         0.261578         0.078132
 O         1.956470         1.471302        -0.185395
 C         3.271302         1.105121         0.113801
 C         3.371265        -0.341943         0.365140
 O         2.065492        -0.704569        -0.021308
 H         4.184580         1.991783         2.777651
 H         4.071056         0.267668         3.453823
 H         5.235714         0.686744         2.114056
 H         1.361635        -0.250045         2.509826
 H         1.110356         1.464381         2.307501
 H        -0.117860        -0.786145        -0.272946
 H        -0.640211         0.274974         0.992557
 H        -0.342269         0.939255        -0.761922
 H         4.147828         1.760627        -0.201306
 H         3.989312        -1.053898        -0.070547
