19
Iteration:  3839
 C         4.218507         0.628781         2.656957
 C         3.376979         0.736875         1.439173
 C         1.849121         0.629951         1.890965
 C         1.232569         0.359026         0.455002
 C        -0.182446         0.032343         0.006363
 O         1.887601         1.651064        -0.149481
 C         3.248177         1.379063         0.118561
 C         3.435133        -0.340508         0.380971
 O         2.078172        -0.740964         0.033890
 H         3.877218         1.226953         3.525151
 H         4.407493        -0.413393         3.063879
 H         5.253067         0.999358         2.470126
 H         1.569800        -0.182223         2.615003
 H         1.395668         1.564950         2.268510
 H        -0.086920        -0.355640        -1.016156
 H        -0.768807        -0.589390         0.589243
 H        -0.683272         1.028159        -0.011244
 H         4.045719         1.846268        -0.503350
 H         4.319987        -0.813144         0.040508
