19
Iteration:  3955charge 0 multiplicity 1
 C         4.282485         0.779621         2.602173
 C         3.261222         0.631104         1.533463
 C         1.761172         0.546216         1.889367
 C         1.305540         0.395227         0.475871
 C        -0.218454         0.176495         0.033756
 O         1.957661         1.556221        -0.135808
 C         3.307969         1.178227         0.140158
 C         3.360284        -0.250411         0.307458
 O         2.126584        -0.709611        -0.023672
 H         4.116045         1.730800         3.093284
 H         3.992928         0.071957         3.374983
 H         5.336653         0.610847         2.334602
 H         1.435147        -0.313482         2.448620
 H         1.395347         1.460771         2.360244
 H        -0.310561         0.264145        -1.030542
 H        -0.507088        -0.960190         0.234208
 H        -0.960477         0.766378         0.656983
 H         4.024620         1.979531        -0.198825
 H         4.330773        -0.659835         0.056612
