19
Iteration:  2880
 C         4.291355         0.730234         2.607577
 C         3.203737         0.690610         1.494229
 C         1.782414         0.658855         1.967224
 C         1.343048         0.412697         0.484679
 C        -0.084746         0.221573         0.051695
 O         1.909717         1.541540        -0.265116
 C         3.277957         1.243210         0.137824
 C         3.330528        -0.341703         0.365063
 O         2.084289        -0.805937         0.026528
 H         4.269800         1.743483         3.090496
 H         3.936908        -0.038613         3.306952
 H         5.266073         0.388226         2.193887
 H         1.555479        -0.274065         2.526628
 H         1.243756         1.590366         2.257186
 H        -0.206477        -0.891188        -0.104668
 H        -0.891485         0.445464         0.743887
 H        -0.295187         0.729606        -0.949066
 H         4.082058         1.948504        -0.287867
 H         4.323014        -0.823402         0.306482
