19
Iteration:  2556
 C         4.343105         0.622616         2.601450
 C         3.199318         0.662335         1.551145
 C         1.683600         0.642279         1.790660
 C         1.256557         0.429720         0.409441
 C        -0.091140         0.282304         0.112619
 O         1.907416         1.484497        -0.304807
 C         3.274191         1.289521         0.139514
 C         3.367555        -0.235894         0.436285
 O         2.166783        -0.813729         0.084765
 H         4.084177         1.281282         3.437059
 H         4.560508        -0.299213         3.109464
 H         5.313979         0.980423         2.248364
 H         1.560800        -0.253834         2.406897
 H         1.297023         1.520153         2.320861
 H        -0.698108        -0.029868         0.984997
 H        -0.696944         1.161768        -0.162943
 H        -0.146026        -0.378854        -0.748688
 H         3.827619         1.946400        -0.441375
 H         4.231932        -1.003102         0.435387
