19
Iteration:  2502
 C         4.275014         0.909397         2.591671
 C         3.245122         0.583096         1.598159
 C         1.793253         0.567371         1.902836
 C         1.314865         0.466976         0.376773
 C        -0.118345         0.246952         0.020317
 O         1.957838         1.553488        -0.144280
 C         3.291080         1.123455         0.128480
 C         3.319392        -0.324328         0.378441
 O         2.020899        -0.803088        -0.038827
 H         4.460487         1.876950         3.031780
 H         4.113169         0.235318         3.465988
 H         5.269794         0.533878         2.353306
 H         1.553548        -0.282125         2.586037
 H         1.610726         1.524314         2.477107
 H        -0.291969        -0.815075         0.319214
 H        -0.753982         0.967435         0.617728
 H        -0.319564         0.292954        -1.043891
 H         4.037208         1.736809        -0.268660
 H         4.131825        -0.979865        -0.005379
