19
Iteration:  2769charge 0 multiplicity 1
 C         4.404445         0.906916         2.676003
 C         3.265109         0.642586         1.573814
 C         1.696893         0.537367         1.898417
 C         1.293545         0.377109         0.393740
 C        -0.190971         0.365491        -0.011875
 O         1.899096         1.429554        -0.241890
 C         3.293824         1.163332         0.170415
 C         3.363861        -0.355233         0.334747
 O         2.080982        -0.798024         0.033293
 H         4.145111         1.645451         3.427735
 H         4.620102        -0.058723         3.186351
 H         5.365004         1.308428         2.227902
 H         1.327246        -0.243508         2.599497
 H         1.367790         1.530619         2.307192
 H        -0.546682        -0.602215        -0.334600
 H        -0.766288         0.659296         0.949171
 H        -0.221446         1.102687        -0.793810
 H         4.048426         1.749249        -0.299057
 H         4.375337        -0.884201         0.207709
