19
Iteration:  2727
 C         4.352040         0.741850         2.649498
 C         3.250746         0.690202         1.634820
 C         1.730403         0.630911         1.819053
 C         1.263334         0.448544         0.392694
 C        -0.206827         0.229347         0.058451
 O         1.989252         1.478074        -0.319708
 C         3.253258         1.254487         0.159370
 C         3.394194        -0.287749         0.371534
 O         2.115552        -0.815081         0.084056
 H         4.405715         1.479795         3.454340
 H         4.427827        -0.213554         3.137501
 H         5.348888         0.959272         2.227068
 H         1.365527        -0.204266         2.411963
 H         1.290969         1.542185         2.234658
 H        -0.542159        -0.797267         0.151854
 H        -0.818783         0.834601         0.776734
 H        -0.585360         0.529455        -0.892581
 H         3.919871         1.936058        -0.304066
 H         3.989431        -1.193017         0.112390
