19
Iteration:  3654
 C         4.458846         0.692309         2.606860
 C         3.164878         0.695579         1.724715
 C         1.592185         0.624336         1.825556
 C         1.310816         0.293309         0.312619
 C        -0.139133         0.148172         0.158075
 O         1.965834         1.570190        -0.269589
 C         3.272127         1.209942         0.220532
 C         3.340973        -0.216020         0.406501
 O         2.143251        -0.728799        -0.127545
 H         4.206754         1.357789         3.412370
 H         4.503417        -0.285591         3.112240
 H         5.319724         0.906443         1.991931
 H         1.302477        -0.085606         2.596902
 H         1.000573         1.546965         2.028549
 H        -0.522722        -0.161237        -0.879546
 H        -0.398069        -0.420438         1.120932
 H        -0.590598         1.201443         0.462133
 H         3.992801         1.820413        -0.285596
 H         4.354032        -0.740922         0.294158
