19
Iteration:  4196
 C         4.323068         0.738817         2.498532
 C         3.115876         0.619179         1.641610
 C         1.637895         0.465555         1.872315
 C         1.344941         0.349026         0.381474
 C        -0.127865         0.318150         0.179658
 O         1.904272         1.470314        -0.280490
 C         3.263316         1.249629         0.207009
 C         3.384323        -0.163857         0.404924
 O         2.234481        -0.772011        -0.027307
 H         4.165544         1.529758         3.221437
 H         4.717095        -0.212564         2.830685
 H         5.141712         1.190343         1.915762
 H         1.351365        -0.409169         2.403304
 H         1.242118         1.286382         2.397631
 H        -0.339247         0.189222        -0.923685
 H        -0.574986        -0.356870         0.840699
 H        -0.497308         1.323766         0.458248
 H         4.004508         2.092965         0.039907
 H         4.191357        -0.758950         0.078204
