19
Iteration:   671
 C         4.518653        -0.017597         2.390859
 C         3.350479         0.340261         1.501913
 C         1.925840        -0.387709         1.626814
 C         1.233321         0.337274         0.423592
 C        -0.226677         0.113046         0.041344
 O         1.564126         1.718482         0.596127
 C         2.878224         1.698263         0.946800
 C         3.490584         0.603403         0.027043
 O         2.370766        -0.065274        -0.698606
 H         4.448836         0.185278         3.444196
 H         4.744610        -1.126037         2.360826
 H         5.376008         0.548691         2.055437
 H         2.113590        -1.451803         1.567794
 H         1.464860        -0.076019         2.616413
 H        -0.429457        -0.659599        -0.732542
 H        -0.715165        -0.453365         0.878716
 H        -0.786570         1.023259        -0.244793
 H         3.292823         2.669923         1.189670
 H         4.401362         0.657065        -0.425782
