19
Iteration:  1912charge 0 multiplicity 1
 C         4.401288         0.479468         2.603690
 C         3.287548         0.599143         1.601690
 C         1.751048         0.358671         1.915866
 C         1.287857         0.338715         0.403927
 C        -0.215641         0.189080         0.061656
 O         1.769385         1.554362        -0.110951
 C         3.222656         1.443436         0.310339
 C         3.423446        -0.075559         0.177594
 O         2.207127        -0.571777        -0.122469
 H         4.435875         1.312542         3.247277
 H         4.086234        -0.480902         3.201184
 H         5.508616         0.255825         2.289479
 H         1.575358        -0.634992         2.407315
 H         1.235052         1.121516         2.547909
 H        -0.308586         1.169661        -0.456200
 H        -0.392232        -0.607365        -0.578682
 H        -0.865632         0.243548         0.895575
 H         3.789272         2.385218         0.088589
 H         4.331938        -0.500559        -0.241007
