19
Iteration:  1682charge 0 multiplicity 1
 C         4.373847         0.580069         2.594325
 C         3.207964         0.450670         1.585128
 C         1.743413         0.056530         1.896403
 C         1.307799         0.422763         0.409526
 C        -0.085167         0.177921         0.103258
 O         1.850360         1.691669         0.090349
 C         3.208623         1.458527         0.448166
 C         3.394509        -0.051195         0.118113
 O         2.109121        -0.510769        -0.349853
 H         4.034320         1.156486         3.414158
 H         4.856662        -0.414477         2.791558
 H         5.222151         1.149119         2.010455
 H         1.490134        -0.954850         2.294103
 H         1.226400         0.799990         2.545059
 H        -0.647638         1.072771         0.376633
 H        -0.204243         0.142943        -1.033432
 H        -0.344509        -0.780237         0.537540
 H         3.886168         2.301526         0.319401
 H         4.232732        -0.524622        -0.395179
