19
Iteration:   696
 C         4.397035         0.100988         2.475477
 C         3.378389         0.327588         1.467323
 C         2.016704        -0.463752         1.585692
 C         1.348551         0.314649         0.434872
 C        -0.077351         0.149052         0.016947
 O         1.531860         1.684764         0.763703
 C         2.942762         1.676158         0.818994
 C         3.428585         0.507971        -0.070531
 O         2.202912        -0.000283        -0.631025
 H         4.144305         0.472915         3.409608
 H         4.487062        -0.995080         2.648452
 H         5.410371         0.559662         2.261852
 H         2.158239        -1.574002         1.476989
 H         1.422149        -0.155544         2.424905
 H        -0.214393        -0.005433        -1.078165
 H        -0.641718        -0.730890         0.346802
 H        -0.611895         1.090807         0.204166
 H         3.452761         2.649876         0.792571
 H         4.331759         0.393884        -0.774165
