19
Iteration:  1736
 C         4.402229         0.433450         2.643197
 C         3.303409         0.532092         1.531723
 C         1.801429         0.255895         1.863243
 C         1.283266         0.362984         0.488011
 C        -0.144716         0.128591         0.066766
 O         1.764848         1.618130         0.015428
 C         3.185495         1.515360         0.406402
 C         3.395849         0.053245         0.138121
 O         2.120440        -0.550509        -0.286187
 H         4.296893         1.285153         3.226850
 H         4.050976        -0.327289         3.342908
 H         5.368590         0.230973         2.071404
 H         1.918876        -0.840215         2.081685
 H         1.328820         0.793972         2.714571
 H        -0.731656        -0.028269         0.936553
 H        -0.244679         1.154113        -0.364927
 H        -0.060314        -0.578328        -0.707858
 H         3.829525         2.292602         0.177862
 H         4.267553        -0.456306        -0.232083
