19
Iteration:  1961
 C         4.304404         0.645904         2.653789
 C         3.306255         0.528548         1.622624
 C         1.825035         0.328142         1.914838
 C         1.253702         0.394092         0.396530
 C        -0.192706         0.164818         0.075758
 O         1.904794         1.611079        -0.073495
 C         3.224379         1.347692         0.314226
 C         3.415988        -0.147845         0.140638
 O         2.077965        -0.559864        -0.221303
 H         4.478421         1.787870         2.942274
 H         4.203580        -0.027377         3.565617
 H         5.234164         0.327081         2.193093
 H         1.578569        -0.604744         2.432030
 H         1.418893         1.036940         2.639384
 H        -0.919619         0.731434         0.686876
 H        -0.255607         0.319623        -1.087942
 H        -0.322282        -0.870277         0.517530
 H         3.924114         2.180483         0.060566
 H         4.208467        -0.852708        -0.093763
