19
Iteration:    51
 C         4.516670        -0.174144         2.138469
 C         3.302173         0.263434         1.421360
 C         2.069061        -0.656177         1.297659
 C         1.371127         0.294454         0.353078
 C        -0.023043        -0.075941        -0.036374
 O         1.370534         1.493634         1.163350
 C         2.796375         1.663430         1.235733
 C         3.451048         0.952649        -0.005876
 O         2.288680         0.557789        -0.743806
 H         4.367349        -0.114401         3.258898
 H         4.817599        -1.197058         1.809244
 H         5.440651         0.434985         1.854982
 H         2.295381        -1.646488         0.884943
 H         1.480501        -0.908271         2.244704
 H        -0.166541        -1.042447        -0.608297
 H        -0.480057        -0.140652         0.967226
 H        -0.506245         0.744801        -0.648374
 H         3.094647         2.511149         1.898606
 H         4.213957         1.350407        -0.632979
