19
Iteration:  4105
 C         4.405194         0.789961         2.649581
 C         3.175478         0.665607         1.616258
 C         1.693657         0.426644         1.963128
 C         1.242503         0.280133         0.383583
 C        -0.243660         0.302518         0.143614
 O         1.926579         1.420605        -0.329653
 C         3.286671         1.308371         0.225507
 C         3.460154        -0.147685         0.367759
 O         2.163719        -0.709732        -0.110585
 H         4.606673         1.872384         2.921496
 H         4.397434         0.033958         3.470799
 H         5.414942         0.475932         2.230309
 H         1.385451        -0.426607         2.575058
 H         1.163990         1.368657         2.261550
 H        -0.475704         0.470950        -0.889036
 H        -0.725132        -0.727628         0.379503
 H        -0.826907         1.092356         0.647915
 H         4.062146         1.855448        -0.235220
 H         4.233684        -0.924575         0.048983
