19
Iteration:  4029
 C         4.333919         0.773964         2.697481
 C         3.356283         0.717404         1.530539
 C         1.846017         0.486942         1.891920
 C         1.281660         0.334400         0.443214
 C        -0.038888         0.200791        -0.022143
 O         1.831083         1.570923        -0.149743
 C         3.288439         1.220225         0.169905
 C         3.262282        -0.239418         0.363345
 O         2.012718        -0.766731        -0.082755
 H         3.986031         1.426303         3.545056
 H         4.270913        -0.235214         3.135188
 H         5.331316         1.142735         2.390320
 H         1.697190        -0.248716         2.656330
 H         1.408962         1.394947         2.333869
 H         0.089797        -0.313869        -0.951745
 H        -0.762113        -0.367132         0.704822
 H        -0.539655         1.188286        -0.011552
 H         3.885603         1.985277        -0.370575
 H         4.090677        -0.799149        -0.038929
