19
Iteration:  3146charge 0 multiplicity 1
 C         4.365197         0.745363         2.579644
 C         3.236004         0.648159         1.632236
 C         1.667863         0.555253         1.868549
 C         1.277359         0.357164         0.389340
 C        -0.174964         0.271574         0.073855
 O         1.971050         1.537536        -0.260350
 C         3.273548         1.257019         0.255984
 C         3.415876        -0.235582         0.347179
 O         2.098418        -0.804599        -0.016631
 H         4.062220         1.532004         3.315356
 H         4.590735        -0.185660         3.136219
 H         5.297301         1.108740         2.127282
 H         1.575852        -0.312780         2.518141
 H         1.156908         1.439008         2.263705
 H        -0.522626        -0.784249         0.151101
 H        -0.767281         0.777956         0.916208
 H        -0.476660         0.688838        -0.906235
 H         3.987223         1.765382        -0.362773
 H         4.176357        -0.971640         0.075615
