19
Iteration:  3916charge 0 multiplicity 1
 C         4.338683         0.977690         2.656580
 C         3.317317         0.545763         1.596722
 C         1.776867         0.439545         1.946888
 C         1.246782         0.334409         0.474740
 C        -0.128323         0.316154        -0.011160
 O         1.934749         1.489027        -0.119849
 C         3.187459         1.189991         0.166604
 C         3.381508        -0.267697         0.245051
 O         2.061645        -0.763559        -0.078156
 H         4.328184         2.070402         2.906543
 H         4.092106         0.405384         3.594172
 H         5.408400         0.825902         2.445274
 H         1.630930        -0.570400         2.436520
 H         1.207888         1.165800         2.544978
 H         0.023716         0.681310        -1.058562
 H        -0.537834        -0.642551         0.069445
 H        -0.799335         1.052389         0.405153
 H         3.989668         1.788043        -0.215814
 H         4.188301        -0.848285        -0.296363
