19
Iteration:  1242
 C         4.367628         0.336193         2.483395
 C         3.284320         0.360533         1.528151
 C         1.841893        -0.066308         1.774373
 C         1.247567         0.378030         0.451799
 C        -0.123671         0.060739         0.000371
 O         1.710095         1.830987         0.438774
 C         3.136248         1.545533         0.644506
 C         3.451877         0.199864         0.002825
 O         2.188866        -0.347458        -0.482613
 H         4.186575         1.167965         3.136813
 H         4.596737        -0.615413         2.935756
 H         5.233649         0.620933         1.865300
 H         1.720810        -1.150739         1.897633
 H         1.530169         0.405967         2.723981
 H        -0.735365        -0.206263         0.885066
 H        -0.566754         0.952688        -0.477729
 H        -0.136812        -0.817838        -0.591777
 H         3.880659         2.367152         0.850825
 H         4.349284        -0.234692        -0.577515
