19
Iteration:  4772charge 0 multiplicity 1
 C         4.278780         0.614167         2.634876
 C         3.270951         0.762421         1.524515
 C         1.833805         0.559987         1.902689
 C         1.276772         0.349880         0.486106
 C        -0.118773         0.273765         0.054349
 O         1.834070         1.478897        -0.217649
 C         3.190008         1.301552         0.145448
 C         3.385388        -0.145506         0.302462
 O         2.187976        -0.835056         0.001283
 H         4.002808         1.189350         3.564179
 H         4.417672        -0.475484         2.875325
 H         5.296380         1.014739         2.315897
 H         1.527385        -0.346969         2.424795
 H         1.336515         1.435196         2.268464
 H        -0.399128         0.503034        -0.946722
 H        -0.468812        -0.818288         0.276649
 H        -0.722749         1.001154         0.626516
 H         3.817464         2.198560        -0.179731
 H         4.357371        -0.627385         0.195106
