19
Iteration:  4335charge 0 multiplicity 1
 C         4.273216         0.683136         2.611882
 C         3.239000         0.745025         1.531708
 C         1.776088         0.584059         1.928795
 C         1.296549         0.294630         0.517872
 C        -0.118206         0.245034         0.016505
 O         1.861434         1.515145        -0.169442
 C         3.256314         1.265304         0.083230
 C         3.387781        -0.209058         0.299351
 O         2.149483        -0.802456        -0.010999
 H         4.072038         1.393788         3.412430
 H         4.391355        -0.354826         2.936406
 H         5.308074         0.986954         2.361387
 H         1.827837        -0.245926         2.675936
 H         1.095857         1.310473         2.489671
 H        -0.225544         0.823030        -0.965708
 H        -0.633229        -0.686795         0.040373
 H        -0.635997         0.787426         0.833362
 H         3.886063         2.035143        -0.303212
 H         4.328833        -0.779652         0.097684
