19
Iteration:   797charge 0 multiplicity 1
 C         4.537051        -0.062580         2.401326
 C         3.319364         0.371713         1.540877
 C         1.946630        -0.221054         1.691392
 C         1.296310         0.369274         0.398487
 C        -0.096298         0.063305        -0.045192
 O         1.467756         1.775315         0.625838
 C         2.900770         1.727338         0.830647
 C         3.416174         0.512640        -0.050024
 O         2.319657        -0.174242        -0.516836
 H         4.342401        -0.046905         3.480270
 H         4.818926        -1.043911         2.114867
 H         5.461757         0.472630         2.221252
 H         1.979562        -1.307009         1.784546
 H         1.552568         0.219947         2.628716
 H        -0.867950         0.127046         0.695604
 H        -0.360989         0.694103        -0.897643
 H        -0.153300        -0.930357        -0.533261
 H         3.394713         2.689953         0.688591
 H         4.301807         0.391283        -0.555718
