19
Iteration:  1939charge 0 multiplicity 1
 C         4.315913         0.538333         2.567188
 C         3.278714         0.602684         1.594875
 C         1.765996         0.321060         1.869234
 C         1.308417         0.331219         0.422565
 C        -0.113584         0.216938         0.127714
 O         1.805614         1.627301        -0.017480
 C         3.193770         1.453707         0.224095
 C         3.416353        -0.080304         0.249186
 O         2.167763        -0.729944        -0.204544
 H         4.558272         1.495137         3.191252
 H         3.932843        -0.145811         3.387967
 H         5.221621         0.046292         2.291007
 H         1.438340        -0.525381         2.463539
 H         1.344617         1.158230         2.423812
 H        -0.489134         1.252871         0.121957
 H        -0.082294         0.025635        -1.030196
 H        -0.814068        -0.313304         0.833138
 H         3.807435         2.275204        -0.154291
 H         4.440107        -0.255483        -0.070505
