19
Iteration:  3372charge 0 multiplicity 1
 C         4.287275         0.728605         2.657707
 C         3.338268         0.645496         1.543262
 C         1.774732         0.543120         1.876664
 C         1.238986         0.353327         0.466560
 C        -0.229644         0.257314        -0.015665
 O         1.896583         1.524752        -0.247509
 C         3.265283         1.261483         0.156897
 C         3.425556        -0.236816         0.294235
 O         2.150626        -0.782736         0.120159
 H         4.272428         1.827215         3.001103
 H         3.987038         0.182285         3.596651
 H         5.275864         0.393765         2.284937
 H         1.545576        -0.329962         2.538863
 H         1.357428         1.537353         2.199250
 H        -0.193000         0.365795        -1.074432
 H        -0.802170        -0.568032         0.406582
 H        -0.705689         1.132477         0.404353
 H         4.005588         1.880122        -0.421278
 H         4.218715        -0.954363        -0.085056
