19
Iteration:  4706charge 0 multiplicity 1
 C         4.373014         0.854439         2.532475
 C         3.151287         0.490145         1.630138
 C         1.655597         0.437477         1.861171
 C         1.325989         0.410302         0.472838
 C        -0.180998         0.124732         0.141789
 O         2.019718         1.608418        -0.131124
 C         3.293392         1.254150         0.244602
 C         3.398139        -0.248462         0.299126
 O         2.063824        -0.672762        -0.183857
 H         4.124026         1.909965         2.808225
 H         4.614717         0.265597         3.451670
 H         5.307008         0.917839         1.903735
 H         1.258069        -0.397202         2.410746
 H         1.277758         1.410652         2.104278
 H        -0.353963         0.255052        -0.915587
 H        -0.313547        -0.963208         0.478239
 H        -0.834023         0.765569         0.789294
 H         4.080254         1.976663         0.288397
 H         4.226137        -1.010320         0.097548
