19
Iteration:    88charge 0 multiplicity 1
 C         4.637246        -0.137409         2.295292
 C         3.500150         0.212492         1.296947
 C         2.180368        -0.687176         1.366833
 C         1.235015         0.364419         0.437623
 C        -0.125068         0.005114        -0.264675
 O         1.352428         1.581145         1.178398
 C         2.807076         1.620365         1.172272
 C         3.433372         0.841952        -0.048701
 O         2.154338         0.471392        -0.621632
 H         4.168293        -0.337999         3.270716
 H         5.048677        -1.067211         2.079782
 H         5.355365         0.658536         2.444140
 H         2.331610        -1.593963         0.801364
 H         1.871810        -0.703817         2.362938
 H        -0.092374         0.338050        -1.315792
 H        -0.397384        -1.079411        -0.206831
 H        -0.893490         0.523613         0.335435
 H         3.181818         2.510791         1.615650
 H         4.201312         1.297104        -0.767565
