19
Iteration:    85
 C         4.638736        -0.171854         2.300434
 C         3.508495         0.204667         1.270185
 C         2.195256        -0.677311         1.375115
 C         1.245976         0.338997         0.443413
 C        -0.110779         0.000896        -0.272331
 O         1.360602         1.585908         1.166116
 C         2.811754         1.635474         1.188612
 C         3.400221         0.859360        -0.038998
 O         2.133639         0.483232        -0.639874
 H         4.135721        -0.302136         3.347722
 H         5.121388        -1.138929         2.183610
 H         5.389222         0.712893         2.434338
 H         2.335330        -1.595795         0.856393
 H         1.847519        -0.677034         2.473810
 H        -0.030540         0.195692        -1.404425
 H        -0.415282        -1.061222        -0.103144
 H        -0.884294         0.656237         0.260105
 H         3.174717         2.513228         1.668234
 H         4.044448         1.331079        -0.741488
