19
Iteration:  4818charge 0 multiplicity 1
 C         4.311059         0.776820         2.536139
 C         3.216118         0.502388         1.613139
 C         1.698688         0.540168         1.894626
 C         1.317796         0.474904         0.380281
 C        -0.133897         0.045078         0.171654
 O         1.996491         1.663512        -0.189620
 C         3.316161         1.328389         0.298546
 C         3.365479        -0.285341         0.272358
 O         2.029533        -0.728602        -0.106654
 H         4.275455         1.824235         2.941934
 H         4.383865         0.071314         3.397032
 H         5.279172         0.707469         1.991971
 H         1.319217        -0.338831         2.488039
 H         1.360923         1.514038         2.332948
 H        -0.203236        -0.379146        -0.834731
 H        -0.379386        -0.793383         0.855396
 H        -0.923839         0.781493         0.058798
 H         4.174548         2.008993         0.130068
 H         4.119224        -0.964206        -0.058390
