19
Iteration:  3760charge 0 multiplicity 1
 C         4.288537         0.926289         2.444335
 C         3.148294         0.603772         1.657180
 C         1.592478         0.385524         1.886560
 C         1.330539         0.337328         0.377984
 C        -0.122873         0.332550         0.138365
 O         1.974423         1.540125        -0.176009
 C         3.312767         1.227633         0.289559
 C         3.381828        -0.287160         0.325533
 O         2.176683        -0.764981        -0.054490
 H         4.295522         2.010197         2.723684
 H         4.295205         0.227780         3.315920
 H         5.176530         0.683693         1.790983
 H         1.248365        -0.591567         2.222207
 H         1.122980         1.266462         2.403689
 H        -0.181681         0.291604        -0.863922
 H        -0.366831        -0.696372         0.380977
 H        -0.620095         1.091223         0.644131
 H         4.087353         1.949749         0.109711
 H         4.267700        -0.975094         0.094389
