19
Iteration:  3559charge 0 multiplicity 1
 C         4.340299         0.811922         2.583177
 C         3.151618         0.518841         1.642373
 C         1.608948         0.513221         1.828524
 C         1.311716         0.450490         0.367183
 C        -0.123812         0.252809         0.194273
 O         2.002316         1.510963        -0.340057
 C         3.203754         1.212668         0.285101
 C         3.437097        -0.243802         0.334864
 O         2.134520        -0.765487        -0.028014
 H         4.291502         1.960525         2.576504
 H         4.604620         0.521541         3.615246
 H         5.203808         0.654389         1.888626
 H         1.227798        -0.385268         2.383881
 H         1.299799         1.417918         2.395868
 H        -0.289349         0.364236        -0.896385
 H        -0.416969        -0.697960         0.526550
 H        -0.698236         1.060312         0.704821
 H         4.050794         1.906295         0.280884
 H         4.301028        -0.956732         0.147486
