19
Iteration:  1518charge 0 multiplicity 1
 C         4.330296         0.450939         2.643762
 C         3.341432         0.517899         1.534946
 C         1.845951        -0.012118         1.839926
 C         1.320420         0.249511         0.489822
 C        -0.137656         0.291796        -0.003223
 O         1.658145         1.650063         0.181682
 C         3.114885         1.564514         0.410755
 C         3.444123        -0.007714         0.067181
 O         2.186856        -0.439501        -0.327625
 H         4.102959         1.011484         3.477749
 H         4.768775        -0.539519         2.950149
 H         5.320217         0.940245         2.287020
 H         2.030084        -1.089518         2.038043
 H         1.313877         0.404172         2.696223
 H        -0.515260        -0.682807         0.229435
 H        -0.503692         1.086425         0.714673
 H        -0.157818         0.765017        -1.046895
 H         3.658439         2.442934         0.262198
 H         4.259311        -0.378491        -0.504304
