19
Iteration:   656
 C         4.535920        -0.023012         2.293097
 C         3.250806         0.283005         1.588902
 C         1.921956        -0.348788         1.637903
 C         1.359664         0.338828         0.318806
 C        -0.104819         0.033140         0.098251
 O         1.484365         1.728937         0.552073
 C         2.916986         1.699642         0.967244
 C         3.416336         0.508200         0.071207
 O         2.333490         0.072269        -0.636214
 H         4.311347         0.126450         3.460213
 H         4.776637        -1.021158         2.022551
 H         5.428794         0.559242         2.020143
 H         1.767154        -1.449077         1.504133
 H         1.314150         0.025053         2.504205
 H        -0.110174        -0.900617        -0.453639
 H        -0.612384         0.021514         1.053197
 H        -0.460722         0.829778        -0.563190
 H         3.401817         2.672966         1.143002
 H         4.445548         0.438671        -0.474882
