19
Iteration:  4987charge 0 multiplicity 1
 C         4.341071         0.710058         2.624266
 C         3.248098         0.686329         1.588717
 C         1.753706         0.462970         1.932277
 C         1.235531         0.281741         0.431905
 C        -0.204278         0.338863         0.018817
 O         1.883333         1.436351        -0.285536
 C         3.198751         1.344166         0.087587
 C         3.438145        -0.132161         0.396715
 O         2.172431        -0.844681         0.041255
 H         4.372231         1.580194         3.258813
 H         4.572913        -0.192119         3.175697
 H         5.167023         0.862107         1.917587
 H         1.589431        -0.457423         2.642551
 H         1.460842         1.460133         2.444448
 H        -0.375872         0.488452        -0.996652
 H        -0.844006        -0.389373         0.636313
 H        -0.367303         1.332700         0.415759
 H         3.914351         2.074925        -0.136272
 H         4.402065        -0.568004         0.149778
