19
Iteration:  2405charge 0 multiplicity 1
 C         4.323046         0.735914         2.692752
 C         3.241395         0.638938         1.511397
 C         1.797069         0.683982         1.907341
 C         1.253283         0.474453         0.463060
 C        -0.218345         0.142500         0.072600
 O         1.937377         1.502300        -0.318967
 C         3.383399         1.208887         0.134420
 C         3.346966        -0.297897         0.407083
 O         2.048280        -0.738041         0.000958
 H         4.253871         1.304118         3.611921
 H         4.544962        -0.365542         3.032388
 H         5.328520         0.997783         2.332207
 H         1.446763        -0.164761         2.556750
 H         1.415757         1.669737         2.302562
 H        -0.421642        -0.932755         0.093752
 H        -1.005837         0.736087         0.624333
 H        -0.312287         0.356892        -0.982542
 H         4.150874         1.884190        -0.316053
 H         4.223760        -0.780278         0.131672
