19
Iteration:  1061
 C         4.416071         0.299503         2.463278
 C         3.258013         0.267754         1.543894
 C         1.817083        -0.247201         1.731676
 C         1.322430         0.320966         0.416259
 C        -0.076725         0.097353         0.111015
 O         1.726506         1.754283         0.460783
 C         3.032625         1.587282         0.703954
 C         3.424209         0.262605         0.005042
 O         2.213939        -0.129753        -0.595340
 H         4.112107         0.981112         3.272378
 H         4.722801        -0.527208         3.058831
 H         5.140087         0.724120         1.830148
 H         1.835472        -1.350243         1.758336
 H         1.218823         0.087985         2.614699
 H        -0.547625        -0.822404         0.553658
 H        -0.634111         1.002484         0.404229
 H        -0.265124         0.012676        -0.986848
 H         3.535791         2.533318         0.949729
 H         4.427091         0.306632        -0.435668
