19
Iteration:    92charge 0 multiplicity 1
 C         4.613946        -0.086058         2.282363
 C         3.468614         0.218365         1.347724
 C         2.165438        -0.678263         1.332805
 C         1.235938         0.372921         0.431774
 C        -0.138227         0.011605        -0.235699
 O         1.351240         1.572305         1.188011
 C         2.811322         1.597317         1.156379
 C         3.457277         0.839106        -0.059129
 O         2.190354         0.454878        -0.618917
 H         4.178713        -0.352987         3.218785
 H         5.079183        -1.092765         1.866256
 H         5.393672         0.638928         2.436037
 H         2.297057        -1.654998         0.762519
 H         1.826233        -0.816441         2.391789
 H        -0.179304         0.542898        -1.175361
 H        -0.306895        -1.051351        -0.352957
 H        -0.934690         0.364329         0.398430
 H         3.228143         2.558793         1.569362
 H         4.282371         1.153539        -0.698174
