19
Iteration:  2049
 C         4.360135         0.582673         2.609421
 C         3.254805         0.589196         1.572090
 C         1.746199         0.424556         1.885603
 C         1.285716         0.373565         0.442854
 C        -0.201044         0.244586         0.098956
 O         1.887555         1.556247        -0.163941
 C         3.284737         1.353024         0.176534
 C         3.378595        -0.112610         0.319661
 O         2.145073        -0.691608        -0.070438
 H         4.002186         1.260527         3.504899
 H         4.588671        -0.504358         2.840913
 H         5.298223         1.057847         2.283517
 H         1.595018        -0.557789         2.323101
 H         1.362527         1.281650         2.426242
 H        -0.559189        -0.822938         0.268171
 H        -0.933246         0.930217         0.635581
 H        -0.340654         0.482193        -0.967433
 H         3.854942         2.194001        -0.154942
 H         4.221246        -0.638853        -0.105154
