19
Iteration:    99
 C         4.584950        -0.065320         2.244334
 C         3.383171         0.231007         1.400662
 C         2.135464        -0.659075         1.299657
 C         1.273669         0.323554         0.433715
 C        -0.132915         0.039129        -0.167770
 O         1.379324         1.559609         1.175327
 C         2.845475         1.600485         1.165557
 C         3.414146         0.847424        -0.012967
 O         2.241522         0.430640        -0.673616
 H         4.240522        -0.350379         3.248114
 H         5.095543        -0.849419         1.771955
 H         5.355738         0.688197         2.339648
 H         2.251695        -1.619101         0.797991
 H         1.750916        -0.936184         2.239148
 H        -0.280732         0.742688        -0.993028
 H        -0.097544        -1.002398        -0.573438
 H        -0.976759         0.189349         0.518476
 H         3.252895         2.529414         1.528673
 H         4.329151         0.981063        -0.665939
