19
Iteration:   384
 C         4.462466        -0.016163         2.385123
 C         3.391109         0.281740         1.368168
 C         2.062841        -0.556497         1.410384
 C         1.339422         0.314211         0.448714
 C        -0.018643         0.133677        -0.012895
 O         1.451612         1.623729         1.003926
 C         2.870088         1.669123         1.013947
 C         3.326719         0.700702        -0.043858
 O         2.251035         0.148506        -0.738005
 H         4.176113         0.346002         3.439905
 H         4.688991        -1.089998         2.513196
 H         5.353738         0.525894         2.109264
 H         2.037057        -1.640245         1.223405
 H         1.578879        -0.500481         2.344718
 H        -0.798128         0.009187         0.760169
 H        -0.200378         0.887504        -0.778496
 H        -0.020582        -0.836351        -0.538028
 H         3.452894         2.616682         1.123295
 H         4.187999         1.018178        -0.702500
