19
Iteration:  4055
 C         4.323193         0.893099         2.655071
 C         3.330638         0.459306         1.545956
 C         1.766281         0.462295         1.978550
 C         1.224699         0.396406         0.491571
 C        -0.203739         0.200235        -0.028451
 O         1.989404         1.555055        -0.142731
 C         3.276466         1.214917         0.162423
 C         3.367518        -0.219009         0.195236
 O         2.071181        -0.722001        -0.012101
 H         3.895995         1.813394         2.993062
 H         4.383818         0.204125         3.495405
 H         5.336531         1.181470         2.371818
 H         1.428446        -0.460756         2.469660
 H         1.514257         1.301319         2.625168
 H        -0.116464        -0.182873        -1.099022
 H        -0.841452        -0.409063         0.541696
 H        -0.710374         1.192951        -0.027468
 H         3.897754         2.035652        -0.117763
 H         4.144467        -0.923484        -0.211978
