19
Iteration:   187charge 0 multiplicity 1
 C         4.423635        -0.190720         2.239562
 C         3.393245         0.239574         1.318803
 C         2.172104        -0.563775         1.454993
 C         1.334730         0.258893         0.499768
 C         0.052881        -0.046609        -0.114539
 O         1.417406         1.594804         1.047793
 C         2.837456         1.740163         1.128091
 C         3.387328         0.790195        -0.033823
 O         2.155479         0.430803        -0.691450
 H         3.927641         0.142627         3.236449
 H         4.772309        -1.222375         2.277588
 H         5.309627         0.474400         2.183493
 H         2.345213        -1.590725         1.018616
 H         1.786871        -0.553334         2.412951
 H        -0.650464        -0.669563         0.454751
 H        -0.379041         0.993183        -0.199208
 H         0.115498        -0.383443        -1.171178
 H         3.223752         2.705944         1.574603
 H         4.070447         0.981547        -0.814124
