19
Iteration:  3868
 C         4.349281         0.746481         2.632543
 C         3.189723         0.599474         1.665127
 C         1.645481         0.492108         1.911453
 C         1.312019         0.397676         0.368743
 C        -0.077125         0.202785         0.134636
 O         1.916545         1.445142        -0.321516
 C         3.282178         1.346888         0.281794
 C         3.377923        -0.203743         0.286638
 O         2.102599        -0.734817        -0.067063
 H         4.462318         1.621140         3.262861
 H         4.618950        -0.086374         3.255663
 H         5.190774         0.971428         1.958851
 H         1.158215        -0.270956         2.493667
 H         1.128958         1.428025         2.252489
 H        -0.258742        -0.001777        -0.865774
 H        -0.455317        -0.533609         0.891388
 H        -0.565502         1.134950         0.338625
 H         4.092993         1.987064        -0.146264
 H         4.284575        -0.627426        -0.033958
