19
Iteration:  3168
 C         4.314165         0.692057         2.621407
 C         3.248126         0.644182         1.613017
 C         1.873392         0.558306         1.950581
 C         1.224995         0.407231         0.499841
 C        -0.135905         0.279006        -0.031773
 O         1.871177         1.392287        -0.295892
 C         3.223887         1.299373         0.089803
 C         3.396373        -0.178261         0.373338
 O         2.110296        -0.736080         0.028776
 H         4.195389         1.516871         3.355992
 H         4.083630        -0.177461         3.279084
 H         5.379423         0.609976         2.389633
 H         1.580457        -0.355743         2.467576
 H         1.470171         1.466705         2.371148
 H        -0.325657        -0.778483        -0.230970
 H        -0.784758         0.559505         0.865933
 H        -0.189461         1.016522        -0.902649
 H         3.921106         2.042414        -0.100236
 H         4.143755        -0.851418        -0.053162
