19
Iteration:   947charge 0 multiplicity 1
 C         4.485957         0.119933         2.376931
 C         3.236311         0.380801         1.546578
 C         1.898492        -0.234396         1.738707
 C         1.283668         0.375911         0.431392
 C        -0.053130        -0.006825        -0.012371
 O         1.630948         1.787832         0.539985
 C         3.035198         1.634487         0.803247
 C         3.391594         0.334047         0.103838
 O         2.189786        -0.092472        -0.633047
 H         4.422308         0.342173         3.371866
 H         4.744852        -0.968058         2.385576
 H         5.273585         0.801283         1.932203
 H         1.669433        -1.288497         1.881281
 H         1.517958         0.331563         2.575384
 H        -0.401750         0.601723        -0.814561
 H         0.063213        -0.975184        -0.483021
 H        -0.804807         0.075911         0.785492
 H         3.559517         2.625220         0.902012
 H         4.395687         0.090996        -0.332748
