19
Iteration:  2374charge 0 multiplicity 1
 C         4.275805         0.719923         2.619081
 C         3.259117         0.591728         1.535586
 C         1.704935         0.688388         1.912920
 C         1.305404         0.407333         0.439892
 C        -0.150450         0.159303         0.074000
 O         1.936651         1.538119        -0.246961
 C         3.336331         1.249094         0.149264
 C         3.363109        -0.297554         0.303599
 O         2.072385        -0.760991         0.054300
 H         4.071915         1.377000         3.442162
 H         4.426191        -0.317703         3.041514
 H         5.258261         0.963446         2.214589
 H         1.446215        -0.085107         2.669726
 H         1.447685         1.745742         2.136475
 H        -0.576906        -0.524818         0.820032
 H        -0.604913         1.161901         0.174788
 H        -0.288545        -0.063086        -0.977673
 H         4.205890         1.808013        -0.251369
 H         4.255870        -0.747181        -0.034174
