19
Iteration:   702
 C         4.400493         0.120240         2.505058
 C         3.381910         0.327611         1.422972
 C         2.009777        -0.479859         1.582806
 C         1.323914         0.281515         0.437042
 C        -0.044386         0.164234        -0.002386
 O         1.585983         1.698747         0.765487
 C         2.918029         1.675162         0.835520
 C         3.420566         0.464211        -0.059592
 O         2.141810         0.023928        -0.672830
 H         4.002072         0.672716         3.465005
 H         4.588281        -0.964066         2.624526
 H         5.374690         0.500444         2.283582
 H         2.195842        -1.536731         1.574580
 H         1.575737        -0.173089         2.590421
 H         0.036332         0.147738        -1.101374
 H        -0.373246        -0.818804         0.411371
 H        -0.726932         0.959441         0.342692
 H         3.387599         2.649150         0.850899
 H         4.279440         0.372594        -0.605742
