19
Iteration:   698charge 0 multiplicity 1
 C         4.395212         0.104395         2.481524
 C         3.387387         0.328167         1.454873
 C         2.011791        -0.475691         1.582184
 C         1.342352         0.306495         0.436052
 C        -0.061950         0.156024         0.011796
 O         1.551359         1.688897         0.765086
 C         2.928160         1.679911         0.824588
 C         3.424315         0.492582        -0.064093
 O         2.177791         0.007077        -0.643618
 H         4.091019         0.559887         3.457581
 H         4.510990        -0.958023         2.627396
 H         5.404731         0.540455         2.276370
 H         2.186429        -1.575536         1.522474
 H         1.470876        -0.145453         2.457577
 H        -0.141900         0.038806        -1.065527
 H        -0.542251        -0.752979         0.348139
 H        -0.645473         1.048034         0.234615
 H         3.423620         2.644437         0.797039
 H         4.358097         0.371636        -0.742650
