19
Iteration:  2129
 C         4.298381         0.705612         2.558691
 C         3.200225         0.639294         1.568816
 C         1.735259         0.386838         1.894786
 C         1.344730         0.274306         0.488355
 C        -0.075251         0.385911         0.086432
 O         1.885191         1.475684        -0.155285
 C         3.207900         1.353884         0.238607
 C         3.389630        -0.167320         0.307236
 O         2.120658        -0.729408        -0.101641
 H         4.454365         1.790011         2.880091
 H         4.060825         0.167157         3.433484
 H         5.271004         0.315151         2.135969
 H         1.728362        -0.637332         2.308030
 H         1.206543         1.043982         2.601013
 H        -0.150683         0.408696        -1.014641
 H        -0.654371        -0.496494         0.360638
 H        -0.477687         1.308183         0.635997
 H         3.894121         1.952038        -0.477110
 H         4.280849        -0.762165         0.098842
