19
Iteration:   525
 C         4.463859         0.033156         2.397273
 C         3.295941         0.269229         1.432126
 C         2.018683        -0.458566         1.534563
 C         1.284603         0.340635         0.400197
 C        -0.076512         0.004813        -0.025066
 O         1.541268         1.737555         0.826639
 C         2.943373         1.641726         0.998364
 C         3.437587         0.538499        -0.048108
 O         2.199563         0.183490        -0.703737
 H         4.369844         0.275362         3.498033
 H         4.813081        -0.936655         2.378641
 H         5.267002         0.621997         2.008556
 H         2.134254        -1.547536         1.624995
 H         1.547970        -0.197737         2.469351
 H        -0.577560         0.862865        -0.460163
 H         0.004092        -0.782541        -0.759943
 H        -0.702255        -0.423823         0.751763
 H         3.442657         2.498210         1.429892
 H         4.343417         0.478503        -0.603126
