19
Iteration:  3599charge 0 multiplicity 1
 C         4.341683         0.926027         2.747135
 C         3.326877         0.603071         1.612762
 C         1.868866         0.468331         1.893226
 C         1.277143         0.312808         0.521240
 C        -0.093923         0.339974        -0.070199
 O         1.828581         1.575438        -0.135947
 C         3.254196         1.183467         0.076735
 C         3.340391        -0.312802         0.271828
 O         2.034739        -0.809759        -0.002716
 H         4.258393         1.900038         3.200339
 H         4.205113         0.163506         3.532632
 H         5.310739         0.748860         2.295254
 H         1.766107        -0.441820         2.472325
 H         1.226381         1.194481         2.393972
 H         0.071155         0.025117        -1.119637
 H        -0.796629        -0.538999         0.261452
 H        -0.533155         1.396203        -0.099431
 H         3.640314         1.892819        -0.602796
 H         4.173000        -0.871983        -0.174227
