19
Iteration:  4144
 C         4.221532         0.694518         2.644823
 C         3.304729         0.665499         1.486744
 C         1.801723         0.629525         1.959526
 C         1.316393         0.451916         0.580685
 C        -0.063104         0.100909        -0.004319
 O         1.880657         1.610934        -0.141133
 C         3.233233         1.260019         0.075088
 C         3.378437        -0.302879         0.241595
 O         2.054300        -0.756189         0.007916
 H         4.001004         1.570393         3.228361
 H         4.058614        -0.246307         3.218253
 H         5.229253         0.791409         2.307741
 H         1.589961        -0.077668         2.815110
 H         1.572579         1.628055         2.390601
 H         0.149043         0.275482        -1.064211
 H        -0.096007        -0.994600         0.139915
 H        -0.949734         0.472656         0.485322
 H         3.860626         1.821124        -0.681664
 H         4.226176        -0.931471         0.051259
