19
Iteration:  2991charge 0 multiplicity 1
 C         4.289055         0.770798         2.623354
 C         3.315206         0.590655         1.540712
 C         1.718938         0.568156         1.958138
 C         1.356656         0.361506         0.529101
 C        -0.160976         0.212758         0.023410
 O         1.954974         1.480612        -0.214794
 C         3.288574         1.311204         0.155301
 C         3.355093        -0.287838         0.320552
 O         2.024982        -0.718100        -0.069555
 H         4.142021         1.763034         3.179076
 H         4.289688        -0.007626         3.392093
 H         5.369002         0.775277         2.316665
 H         1.307865        -0.254915         2.592908
 H         1.427387         1.553428         2.394640
 H        -0.864901        -0.043195         0.858339
 H        -0.440972         1.130006        -0.562665
 H        -0.254411        -0.633927        -0.725257
 H         4.066229         1.927336        -0.138419
 H         4.247554        -0.766762        -0.000863
