19
Iteration:  3805charge 0 multiplicity 1
 C         4.290468         0.664481         2.725180
 C         3.291116         0.640200         1.539145
 C         1.777408         0.598484         1.957363
 C         1.306694         0.463311         0.519493
 C        -0.154439         0.129169         0.015796
 O         1.846642         1.472403        -0.266667
 C         3.219062         1.304464         0.120618
 C         3.444171        -0.208866         0.230380
 O         2.119997        -0.731234         0.029757
 H         3.937260         1.386620         3.466372
 H         4.383444        -0.382711         3.105393
 H         5.246750         1.000145         2.281487
 H         1.559131        -0.262914         2.593016
 H         1.409000         1.578381         2.352922
 H        -0.104894        -0.182793        -0.983537
 H        -0.708773        -0.558529         0.582657
 H        -0.642721         1.090553        -0.013027
 H         3.968961         2.050809        -0.181481
 H         4.310453        -0.700798        -0.142765
