19
Iteration:  3344charge 0 multiplicity 1
 C         4.335742         0.679628         2.571860
 C         3.181763         0.656646         1.691348
 C         1.707611         0.673811         1.902006
 C         1.330795         0.427386         0.321357
 C        -0.069896         0.120797         0.141593
 O         1.989174         1.488701        -0.328362
 C         3.288292         1.240242         0.260171
 C         3.302307        -0.244332         0.426946
 O         2.062810        -0.733667        -0.096750
 H         4.177377         1.617013         3.044437
 H         4.500608        -0.004591         3.362760
 H         5.206833         0.780837         1.931446
 H         1.185844        -0.058483         2.525880
 H         1.277111         1.647031         2.093235
 H        -0.472878         0.413133        -0.874377
 H        -0.259303        -0.884749         0.463213
 H        -0.559539         0.762197         0.965328
 H         3.996092         1.900362        -0.296698
 H         4.117959        -0.932403         0.362940
