19
Iteration:  2730charge 0 multiplicity 1
 C         4.336172         0.743327         2.623338
 C         3.245877         0.694121         1.593827
 C         1.723215         0.615907         1.847430
 C         1.268887         0.443918         0.368390
 C        -0.189378         0.235502         0.072271
 O         1.991281         1.452906        -0.318542
 C         3.247448         1.258606         0.195650
 C         3.397780        -0.281322         0.379558
 O         2.114520        -0.806587         0.094914
 H         4.351264         1.502103         3.477664
 H         4.431120        -0.259738         3.072067
 H         5.339894         0.984815         2.185817
 H         1.375071        -0.208979         2.453210
 H         1.316858         1.554656         2.207094
 H        -0.625632        -0.780563         0.058276
 H        -0.704257         0.861159         0.738235
 H        -0.659009         0.623277        -0.876598
 H         4.028018         1.909961        -0.296116
 H         4.017961        -1.078139         0.158400
