19
Iteration:  3899
 C         4.295903         0.911958         2.560845
 C         3.204980         0.629795         1.585564
 C         1.738364         0.362633         1.909340
 C         1.309615         0.345948         0.416834
 C        -0.280771         0.332093         0.009317
 O         1.887160         1.500920        -0.113954
 C         3.398118         1.236340         0.231061
 C         3.410063        -0.297849         0.353632
 O         2.162973        -0.771784        -0.091083
 H         4.320132         2.001351         2.696583
 H         4.328033         0.302434         3.444511
 H         5.230348         0.774243         1.989182
 H         1.533897        -0.531320         2.462643
 H         1.382964         1.281084         2.392293
 H        -0.492563         0.576674        -1.063177
 H        -0.693240        -0.693669         0.444844
 H        -0.678937         1.214177         0.566427
 H         3.998334         2.034191        -0.224646
 H         4.274570        -0.911401         0.339554
