19
Iteration:    73charge 0 multiplicity 1
 C         4.598272        -0.208682         2.295311
 C         3.453699         0.152004         1.333234
 C         2.197159        -0.610830         1.361603
 C         1.315555         0.239654         0.437169
 C        -0.046644        -0.008028        -0.192564
 O         1.418054         1.562775         1.128151
 C         2.836144         1.632245         1.241472
 C         3.237524         1.003441        -0.037828
 O         2.135038         0.507435        -0.729546
 H         4.108814        -0.134633         3.329360
 H         5.142495        -1.185487         2.095111
 H         5.449660         0.578657         2.246393
 H         2.251345        -1.663184         1.084816
 H         1.772943        -0.692214         2.446306
 H         0.212456        -0.214870        -1.283229
 H        -0.553749        -0.897663         0.230647
 H        -0.749117         0.881233        -0.223603
 H         3.283304         2.541509         1.683089
 H         4.033113         1.289587        -0.656880
