19
Iteration:  2180charge 0 multiplicity 1
 C         4.295939         0.836868         2.614441
 C         3.249308         0.523838         1.599091
 C         1.776300         0.415408         1.935130
 C         1.332015         0.423146         0.473872
 C        -0.109117         0.186658         0.062625
 O         1.971126         1.599265        -0.168186
 C         3.305511         1.191387         0.199788
 C         3.301617        -0.287354         0.250366
 O         2.003226        -0.633052        -0.092466
 H         4.046758         1.743924         3.212723
 H         4.552210         0.025689         3.305190
 H         5.223851         1.096243         2.089248
 H         1.375140        -0.415798         2.487228
 H         1.465977         1.334496         2.378030
 H        -0.468873         0.921848        -0.633876
 H        -0.261221        -0.671620        -0.538115
 H        -0.649702         0.120450         0.968236
 H         4.136995         1.857957        -0.058425
 H         4.088016        -0.976389        -0.098077
