19
Iteration:  3030
 C         4.462032         0.697498         2.663048
 C         3.190683         0.566998         1.627573
 C         1.735816         0.586188         1.851341
 C         1.240361         0.457300         0.370151
 C        -0.166696         0.106877         0.106190
 O         1.939437         1.554284        -0.285157
 C         3.290968         1.330229         0.230756
 C         3.345214        -0.267801         0.408587
 O         2.088617        -0.702144        -0.089132
 H         4.515947         1.699279         2.962867
 H         3.982063         0.174794         3.498233
 H         5.414284         0.260783         2.363321
 H         1.295955        -0.251274         2.403962
 H         1.310629         1.492761         2.296079
 H        -0.667884         0.020538         1.058876
 H        -0.590640         0.941311        -0.394430
 H        -0.229937        -0.841188        -0.452397
 H         4.014111         1.940180        -0.296856
 H         4.246058        -0.821988         0.018571
