19
Iteration:  3944charge 0 multiplicity 1
 C         4.225880         0.837922         2.643033
 C         3.325322         0.503202         1.505531
 C         1.822359         0.543572         1.933539
 C         1.263823         0.443062         0.472138
 C        -0.176265         0.188713        -0.011338
 O         1.933095         1.555893        -0.139249
 C         3.245136         1.320291         0.202614
 C         3.427078        -0.314150         0.245641
 O         2.062218        -0.772021         0.009899
 H         4.150810         1.893068         2.841219
 H         4.042277         0.205304         3.508194
 H         5.288432         0.698377         2.376603
 H         1.648121        -0.357992         2.484690
 H         1.532026         1.429225         2.505853
 H        -0.178132         0.471930        -1.047352
 H        -0.283823        -0.968663         0.149651
 H        -0.967480         0.841478         0.454865
 H         4.017637         1.947716        -0.332072
 H         4.143913        -1.001705        -0.195921
