19
Iteration:   163charge 0 multiplicity 1
 C         4.580460        -0.183033         2.244212
 C         3.355916         0.271785         1.462868
 C         2.059053        -0.615336         1.406332
 C         1.274123         0.329964         0.411519
 C        -0.117950        -0.052095        -0.053293
 O         1.422007         1.615458         1.045035
 C         2.836248         1.689159         1.161750
 C         3.374120         0.925641        -0.002563
 O         2.320522         0.362056        -0.781460
 H         4.344223        -0.198504         3.389244
 H         4.814622        -1.199545         1.931575
 H         5.538370         0.469140         2.089789
 H         2.257886        -1.581842         0.905465
 H         1.526495        -0.725448         2.380483
 H        -0.911743        -0.084381         0.735282
 H        -0.474093         0.600742        -0.913627
 H        -0.008829        -1.063284        -0.524850
 H         3.293868         2.660432         1.421310
 H         4.301061         1.115599        -0.612247
