19
Iteration:  2713charge 0 multiplicity 1
 C         4.406011         0.731150         2.754267
 C         3.254398         0.627939         1.597852
 C         1.741739         0.684510         1.874837
 C         1.287931         0.419664         0.400443
 C        -0.192055         0.182410         0.075241
 O         1.911204         1.532941        -0.305948
 C         3.347081         1.178870         0.064067
 C         3.326832        -0.264807         0.377105
 O         2.028921        -0.763926         0.015795
 H         4.163636         1.646177         3.225821
 H         4.393826        -0.124923         3.461065
 H         5.320264         0.721409         2.195529
 H         1.460992        -0.204957         2.499219
 H         1.345876         1.653957         2.285066
 H        -0.224156        -0.883923         0.348627
 H        -1.033698         0.798205         0.549454
 H        -0.174708         0.178259        -1.024079
 H         4.170813         1.812965        -0.263866
 H         4.386946        -0.644977         0.202322
