19
Iteration:  3874charge 0 multiplicity 1
 C         4.370304         0.775652         2.580337
 C         3.145585         0.614354         1.666348
 C         1.602572         0.476967         1.866056
 C         1.365333         0.338599         0.394152
 C        -0.092957         0.255508         0.163005
 O         1.951692         1.500729        -0.326648
 C         3.226940         1.326043         0.333445
 C         3.408258        -0.249153         0.338009
 O         2.122662        -0.760192        -0.077059
 H         4.338860         1.807638         3.049076
 H         4.542849        -0.072363         3.282865
 H         5.231575         0.918657         1.897112
 H         1.178310        -0.458950         2.323733
 H         1.286069         1.392726         2.362258
 H        -0.383444         0.110445        -0.968731
 H        -0.432527        -0.579569         0.835448
 H        -0.538322         1.247831         0.437557
 H         3.867145         2.020986        -0.164637
 H         4.327183        -0.723782        -0.126950
