19
Iteration:  2448charge 0 multiplicity 1
 C         4.336944         0.868033         2.567060
 C         3.272325         0.689636         1.628079
 C         1.693105         0.554076         1.871305
 C         1.354772         0.350947         0.416235
 C        -0.158824         0.395993         0.082872
 O         1.840864         1.484398        -0.248598
 C         3.294789         1.214351         0.226215
 C         3.340516        -0.377453         0.402669
 O         2.151980        -0.867250        -0.053325
 H         4.280555         1.879373         3.041903
 H         4.297105         0.119421         3.524591
 H         5.376472         0.790260         2.181646
 H         1.539033        -0.404711         2.444699
 H         1.153439         1.453641         2.298579
 H        -0.427780        -0.621852        -0.220897
 H        -0.799786         0.931367         0.898916
 H        -0.179932         1.026669        -0.795210
 H         4.120197         1.645551        -0.361904
 H         4.070146        -1.075654         0.050436
