19
Iteration:   221
 C         4.624955        -0.067423         2.342982
 C         3.357268         0.190832         1.505166
 C         2.031310        -0.567497         1.302799
 C         1.319847         0.355177         0.268404
 C        -0.139000        -0.010683        -0.022045
 O         1.445561         1.614899         1.013959
 C         2.859566         1.611462         1.217180
 C         3.392548         0.808811        -0.032593
 O         2.251562         0.334404        -0.765346
 H         4.400646         0.177311         3.422304
 H         5.120528        -1.082357         2.344984
 H         5.265740         0.716982         2.021672
 H         2.194497        -1.581245         0.844623
 H         1.502074        -0.690925         2.180275
 H        -0.337679        -1.074263         0.159409
 H        -0.658372         0.572570         0.743431
 H        -0.472455         0.213770        -1.044337
 H         3.262569         2.514530         1.652380
 H         4.117846         1.215401        -0.701731
