19
Iteration:  2076
 C         4.313845         0.615547         2.629886
 C         3.209711         0.571182         1.581375
 C         1.793407         0.585916         1.907230
 C         1.329855         0.391774         0.451186
 C        -0.086571         0.066945         0.110310
 O         1.929945         1.646343        -0.105967
 C         3.308888         1.302254         0.226168
 C         3.300135        -0.197268         0.229795
 O         2.033031        -0.666324        -0.170356
 H         4.122201         1.299143         3.388509
 H         4.310700        -0.371889         3.072114
 H         5.274422         0.753811         2.133714
 H         1.482611        -0.130385         2.714383
 H         1.491152         1.605800         2.275182
 H        -0.068190        -0.881532        -0.410857
 H        -0.666304         0.027288         1.004521
 H        -0.519582         0.648469        -0.732783
 H         3.952519         2.199724        -0.011043
 H         4.099326        -0.885670        -0.080441
