19
Iteration:  3563
 C         4.289416         0.841606         2.553058
 C         3.177829         0.516734         1.651488
 C         1.629796         0.496350         1.871397
 C         1.306551         0.411545         0.376877
 C        -0.147197         0.285308         0.157404
 O         2.007788         1.498176        -0.318774
 C         3.233773         1.206497         0.291584
 C         3.434449        -0.246390         0.328065
 O         2.139992        -0.755006        -0.030270
 H         4.381257         1.931515         2.559925
 H         4.543696         0.477675         3.540329
 H         5.177131         0.628532         1.938123
 H         1.362753        -0.407229         2.434070
 H         1.290292         1.453417         2.292461
 H        -0.238525         0.381090        -0.910973
 H        -0.567298        -0.639381         0.603679
 H        -0.727090         1.003218         0.664250
 H         3.995331         2.018449         0.190608
 H         4.243153        -0.911824         0.075965
