19
Iteration:  1431charge 0 multiplicity 1
 C         4.382067         0.294660         2.533936
 C         3.282138         0.493306         1.496890
 C         1.836301         0.083479         1.807450
 C         1.291624         0.321488         0.472012
 C        -0.077507         0.104720         0.011257
 O         1.750956         1.732738         0.287522
 C         3.064319         1.518464         0.483907
 C         3.425936         0.174723         0.058457
 O         2.195500        -0.381543        -0.333527
 H         4.194308         0.922956         3.359889
 H         4.175115        -0.735593         2.967394
 H         5.420811         0.355158         2.059135
 H         1.767031        -0.967424         2.132860
 H         1.342595         0.780639         2.479898
 H        -0.779441         0.790942         0.509440
 H        -0.259392         0.027233        -1.086724
 H        -0.562687        -0.869491         0.414813
 H         3.638272         2.432674         0.372272
 H         4.380147        -0.247030        -0.269940
