19
Iteration:   283
 C         4.696603        -0.157868         2.355105
 C         3.399432         0.255700         1.431789
 C         2.098536        -0.513717         1.443441
 C         1.293845         0.278147         0.362940
 C        -0.023513         0.024776        -0.142054
 O         1.343163         1.667381         1.051250
 C         2.816785         1.672313         1.071058
 C         3.362513         0.741547        -0.051465
 O         2.182244         0.290504        -0.697587
 H         4.310827        -0.242403         3.416236
 H         5.183395        -0.966414         1.906252
 H         5.587152         0.552797         2.475451
 H         1.993506        -1.641806         1.366920
 H         1.567523        -0.246609         2.397464
 H         0.074123         0.154582        -1.227837
 H        -0.505718        -0.971450         0.031764
 H        -0.729644         0.789223         0.234132
 H         3.134662         2.661259         1.354363
 H         4.149384         0.992090        -0.675620
