19
Iteration:  2858
 C         4.387171         0.688724         2.698740
 C         3.204449         0.688876         1.602631
 C         1.722798         0.601592         1.867073
 C         1.275331         0.390419         0.412081
 C        -0.214601         0.289833         0.062478
 O         1.936567         1.395865        -0.341762
 C         3.251131         1.273149         0.113389
 C         3.406319        -0.213851         0.383655
 O         2.157384        -0.781578         0.084948
 H         4.591237         1.729892         2.967346
 H         4.035094         0.104543         3.537830
 H         5.195091         0.165568         2.181002
 H         1.493836        -0.329334         2.437177
 H         1.436673         1.555233         2.377423
 H        -0.597912        -0.708778        -0.241158
 H        -0.796617         0.555290         0.955048
 H        -0.463334         1.046202        -0.740198
 H         3.845709         2.080063        -0.447648
 H         4.288641        -0.685142        -0.032001
