19
Iteration:  3412
 C         4.309212         0.937711         2.607020
 C         3.230862         0.571689         1.591522
 C         1.799116         0.460828         1.943478
 C         1.296801         0.360921         0.441491
 C        -0.187050         0.292652         0.029652
 O         1.942247         1.468199        -0.186711
 C         3.298978         1.191328         0.200079
 C         3.366313        -0.307784         0.247109
 O         2.063696        -0.708986        -0.023141
 H         4.210289         1.944602         2.963919
 H         4.183792         0.469813         3.613160
 H         5.330959         0.630854         2.364628
 H         1.542158        -0.410474         2.520212
 H         1.495915         1.317715         2.526332
 H        -0.139745        -0.151017        -1.016781
 H        -1.020976        -0.260228         0.642706
 H        -0.523245         1.298143        -0.211556
 H         4.124963         1.819709        -0.137510
 H         4.248558        -0.927034        -0.066088
