19
Iteration:  2097charge 0 multiplicity 1
 C         4.394542         0.614579         2.681930
 C         3.303425         0.504951         1.580163
 C         1.720350         0.537089         1.870518
 C         1.276730         0.406077         0.424304
 C        -0.244383         0.136479         0.076070
 O         1.880849         1.618577        -0.175235
 C         3.233925         1.297711         0.254108
 C         3.436036        -0.174813         0.240277
 O         2.134164        -0.628719        -0.073499
 H         4.360612         1.610310         3.105499
 H         4.256608        -0.147298         3.398586
 H         5.384012         0.473533         2.175204
 H         1.305803        -0.358852         2.395936
 H         1.446318         1.467463         2.429545
 H        -0.326511        -0.557917        -0.766740
 H        -0.622467        -0.256048         0.998146
 H        -0.880601         0.993604        -0.288186
 H         4.007456         1.849630        -0.380226
 H         4.301292        -0.795724        -0.050154
