19
Iteration:  4847charge 0 multiplicity 1
 C         4.329654         0.855909         2.637878
 C         3.293145         0.618326         1.593290
 C         1.830147         0.401923         1.992658
 C         1.316935         0.303328         0.429956
 C        -0.158157         0.299065         0.025046
 O         1.869805         1.531115        -0.127102
 C         3.202436         1.234218         0.149044
 C         3.413034        -0.184123         0.294819
 O         2.043541        -0.768275        -0.107953
 H         4.491961         1.908531         2.925057
 H         4.158603         0.258139         3.547548
 H         5.297918         0.423132         2.268938
 H         1.783576        -0.505232         2.562894
 H         1.407789         1.303821         2.365072
 H        -0.188441        -0.054795        -0.990713
 H        -0.911042        -0.345762         0.654428
 H        -0.615241         1.254454        -0.246667
 H         4.020351         1.978310        -0.091603
 H         4.130916        -0.799911        -0.138707
