19
Iteration:  1296
 C         4.378139         0.199783         2.473746
 C         3.318941         0.487850         1.544154
 C         1.854530        -0.038088         1.835805
 C         1.285659         0.317330         0.415037
 C        -0.139285         0.160104         0.053919
 O         1.695939         1.708893         0.272344
 C         3.024513         1.667745         0.557368
 C         3.463490         0.273328         0.099919
 O         2.250534        -0.408512        -0.390314
 H         4.069098         0.519297         3.472267
 H         4.402885        -0.865483         2.583436
 H         5.370686         0.524458         2.167751
 H         1.783567        -1.121661         2.051230
 H         1.384789         0.536386         2.676980
 H        -0.263018        -0.946335         0.012491
 H        -0.803572         0.550428         0.849663
 H        -0.281782         0.620642        -0.910166
 H         3.583354         2.589122         0.388731
 H         4.295596        -0.030291        -0.593736
