19
Iteration:   119charge 0 multiplicity 1
 C         4.559787        -0.062736         2.137413
 C         3.258230         0.165269         1.491289
 C         2.026786        -0.711916         1.348541
 C         1.386885         0.302877         0.305757
 C         0.003116         0.069528         0.005735
 O         1.458685         1.570657         0.979985
 C         2.790839         1.646460         1.287369
 C         3.358068         0.868698         0.065414
 O         2.265182         0.399319        -0.776999
 H         4.379900        -0.229417         3.270988
 H         5.203316        -0.774601         1.676880
 H         5.165975         0.931962         2.088746
 H         2.278242        -1.682408         0.936603
 H         1.380871        -0.892112         2.239259
 H        -0.522306         1.077283        -0.054220
 H        -0.183832        -0.580162        -0.893016
 H        -0.424853        -0.413278         0.929786
 H         3.103533         2.526732         1.803304
 H         4.338199         1.196037        -0.361574
