19
Iteration:   744charge 0 multiplicity 1
 C         4.501952         0.166195         2.465062
 C         3.276608         0.212682         1.455860
 C         1.853870        -0.352434         1.571356
 C         1.297463         0.311311         0.372285
 C        -0.128534         0.084895         0.057578
 O         1.610795         1.740729         0.707362
 C         2.989516         1.655983         0.868215
 C         3.458119         0.455620        -0.005901
 O         2.265699        -0.024086        -0.686486
 H         4.148538         0.720973         3.456671
 H         4.909962        -0.777292         2.777666
 H         5.304686         0.787651         2.152961
 H         1.711430        -1.402945         1.327042
 H         1.516796        -0.056391         2.595069
 H        -0.823195         0.838628        -0.263098
 H        -0.200539        -0.618220        -0.785296
 H        -0.579018        -0.346652         0.942362
 H         3.603501         2.490808         1.192770
 H         4.309458         0.493340        -0.571931
