19
Iteration:  4538charge 0 multiplicity 1
 C         4.379334         0.801649         2.649974
 C         3.338785         0.660122         1.526991
 C         1.854756         0.411875         1.982209
 C         1.277891         0.229598         0.472799
 C        -0.265835         0.384754        -0.007343
 O         1.842560         1.495795        -0.151483
 C         3.197235         1.310013         0.070163
 C         3.384345        -0.227664         0.353337
 O         2.129134        -0.777410        -0.025379
 H         3.796478         1.416220         3.400193
 H         4.444003        -0.247167         3.043715
 H         5.356491         1.340610         2.574876
 H         1.809827        -0.586119         2.348036
 H         1.252306         1.176917         2.402484
 H        -0.060532         0.735429        -1.050582
 H        -0.641286        -0.589363        -0.163983
 H        -0.637594         1.074008         0.707114
 H         3.841019         2.073140        -0.273132
 H         4.212625        -0.764239        -0.167721
