19
Iteration:  1697
 C         4.360650         0.535932         2.514154
 C         3.278169         0.477994         1.523256
 C         1.814424         0.209907         1.854224
 C         1.276170         0.292721         0.443820
 C        -0.200919         0.274122         0.034344
 O         1.799983         1.643153         0.158887
 C         3.157460         1.493342         0.468903
 C         3.443172        -0.073907         0.169330
 O         2.215528        -0.564908        -0.332420
 H         4.034768         1.231962         3.372971
 H         4.558502        -0.451385         2.988451
 H         5.288931         0.995665         2.323788
 H         1.741451        -0.836044         2.084641
 H         1.318142         0.829015         2.581544
 H        -0.921093         0.787451         0.750374
 H        -0.356843         0.583725        -0.992593
 H        -0.671822        -0.734705         0.124593
 H         3.781674         2.333167         0.220671
 H         4.349581        -0.529003        -0.208450
