19
Iteration:   505
 C         4.488619        -0.077615         2.340454
 C         3.369562         0.289897         1.401101
 C         1.984878        -0.346024         1.625597
 C         1.287703         0.299901         0.406362
 C        -0.083184        -0.017618        -0.125427
 O         1.514443         1.721690         0.973726
 C         2.932373         1.726933         0.932190
 C         3.398617         0.670956        -0.059612
 O         2.256105         0.071832        -0.660281
 H         4.078151        -0.003812         3.374345
 H         4.695289        -1.142775         2.327796
 H         5.349308         0.509323         2.292313
 H         1.911803        -1.386993         1.351309
 H         1.462923        -0.235053         2.584309
 H        -0.180159         0.482195        -1.101389
 H        -0.133564        -1.107507        -0.294568
 H        -0.861006         0.215668         0.652359
 H         3.507738         2.642078         0.926772
 H         4.208820         0.791346        -0.789760
