19
Iteration:  2136charge 0 multiplicity 1
 C         4.301810         0.784018         2.538792
 C         3.183896         0.570498         1.621937
 C         1.729114         0.351539         1.923764
 C         1.304946         0.290717         0.429479
 C        -0.106058         0.418242         0.099329
 O         1.838794         1.493403        -0.133365
 C         3.233705         1.306868         0.184074
 C         3.438199        -0.175650         0.273570
 O         2.165410        -0.716316        -0.080522
 H         4.585706         1.756127         3.014178
 H         4.070635         0.131153         3.429279
 H         5.254115         0.352998         2.222324
 H         1.674863        -0.599851         2.426780
 H         1.290266         1.162356         2.463035
 H        -0.056676         0.572608        -0.997864
 H        -0.721168        -0.468759         0.104974
 H        -0.450919         1.140768         0.776040
 H         3.923028         1.857954        -0.394701
 H         4.251438        -0.920385         0.092784
