19
Iteration:  3225charge 0 multiplicity 1
 C         4.336320         0.831257         2.612793
 C         3.175589         0.506221         1.672000
 C         1.690127         0.591926         1.920083
 C         1.288414         0.545010         0.421985
 C        -0.136295         0.114184         0.134111
 O         1.943711         1.474481        -0.287003
 C         3.314273         1.261274         0.235791
 C         3.350307        -0.312029         0.373169
 O         2.150401        -0.687992        -0.164325
 H         4.434269         1.885418         2.872323
 H         4.227051         0.220037         3.579496
 H         5.239075         0.414147         2.050723
 H         1.225847        -0.214840         2.457372
 H         1.479507         1.525408         2.387496
 H        -0.320431        -0.697605        -0.580307
 H        -0.654558         0.008459         1.044756
 H        -0.691806         1.046000        -0.275081
 H         4.164457         1.885255        -0.274033
 H         4.087643        -1.136575         0.080336
