19
Iteration:  4331charge 0 multiplicity 1
 C         4.273843         0.672803         2.581722
 C         3.226633         0.757053         1.536673
 C         1.783311         0.602716         1.928774
 C         1.305272         0.339922         0.494917
 C        -0.113364         0.246996         0.027609
 O         1.857280         1.451080        -0.175920
 C         3.239469         1.304596         0.118163
 C         3.405262        -0.200704         0.308352
 O         2.157501        -0.823339        -0.004417
 H         4.100475         1.329804         3.434880
 H         4.235087        -0.367841         2.928483
 H         5.295966         0.894327         2.327196
 H         1.785524        -0.325391         2.545534
 H         1.154995         1.312761         2.492014
 H        -0.229578         0.806250        -0.879065
 H        -0.795137        -0.647611        -0.000261
 H        -0.605779         0.822142         0.842035
 H         3.978405         2.075478        -0.279087
 H         4.318621        -0.655236         0.083102
