19
Iteration:  3722
 C         4.381151         0.940687         2.780034
 C         3.343073         0.652965         1.549372
 C         1.896346         0.483332         1.961444
 C         1.295423         0.342956         0.471464
 C        -0.156945         0.283676        -0.084557
 O         1.882256         1.510897        -0.092685
 C         3.219020         1.150603         0.179830
 C         3.310238        -0.278697         0.140839
 O         2.011406        -0.797875        -0.036588
 H         4.209429         1.960726         3.176797
 H         4.156235         0.335698         3.656524
 H         5.455867         0.878114         2.715324
 H         1.580603        -0.341390         2.644161
 H         1.323763         1.352343         2.218136
 H        -0.019339         0.540884        -1.260307
 H        -0.540238        -0.740099        -0.084788
 H        -1.095671         0.926498         0.158608
 H         4.063918         1.651008        -0.328216
 H         4.026093        -0.910896        -0.238358
