19
Iteration:  4863charge 0 multiplicity 1
 C         4.408463         0.832286         2.676576
 C         3.294009         0.666841         1.586087
 C         1.825255         0.384208         1.910603
 C         1.227853         0.262300         0.509940
 C        -0.164708         0.412948        -0.029464
 O         1.842317         1.428994        -0.213599
 C         3.188373         1.402277         0.267532
 C         3.347662        -0.238516         0.170501
 O         2.128769        -0.858540        -0.026320
 H         4.447779         1.912419         2.957360
 H         4.041194         0.304823         3.580039
 H         5.438448         0.531792         2.452939
 H         1.747496        -0.641978         2.426423
 H         1.434728         1.135892         2.677881
 H        -0.319900         0.145860        -1.139275
 H        -0.819233        -0.083491         0.579706
 H        -0.270704         1.502911         0.153115
 H         3.780027         2.052763        -0.292301
 H         4.375074        -0.694591        -0.094033
