19
Iteration:  3383
 C         4.305683         0.791546         2.707143
 C         3.262572         0.673667         1.530358
 C         1.854508         0.524000         1.909888
 C         1.332280         0.295718         0.411203
 C        -0.120212         0.320954        -0.030073
 O         1.861081         1.515746        -0.140296
 C         3.252025         1.241079         0.037261
 C         3.334542        -0.225294         0.318632
 O         2.048423        -0.838036         0.067611
 H         4.453639         1.894854         3.024230
 H         3.861251         0.142273         3.506124
 H         5.368397         0.467669         2.586115
 H         1.634412        -0.411029         2.495337
 H         1.516490         1.380848         2.565803
 H        -0.168391         0.167004        -1.084579
 H        -0.724284        -0.510229         0.301923
 H        -0.511505         1.303032         0.173628
 H         3.932391         1.906270        -0.588633
 H         4.344079        -0.677195         0.138287
