19
Iteration:  2559charge 0 multiplicity 1
 C         4.351796         0.657579         2.610192
 C         3.205192         0.671622         1.534943
 C         1.686623         0.643404         1.800478
 C         1.257304         0.426372         0.427677
 C        -0.118920         0.257241         0.113290
 O         1.931829         1.498147        -0.295608
 C         3.265311         1.272506         0.140434
 C         3.380732        -0.235044         0.426765
 O         2.157330        -0.806491         0.076260
 H         4.067520         1.220019         3.474429
 H         4.471452        -0.432804         3.037768
 H         5.312639         0.976100         2.229761
 H         1.521396        -0.298563         2.392551
 H         1.278032         1.542043         2.324819
 H        -0.758697        -0.017037         0.965958
 H        -0.621575         1.133426        -0.209568
 H        -0.205596        -0.415795        -0.787286
 H         3.958987         1.912765        -0.438532
 H         4.134684        -1.036092         0.438184
