19
Iteration:   315charge 0 multiplicity 1
 C         4.489903        -0.088776         2.181580
 C         3.290560         0.283805         1.414107
 C         2.028806        -0.520445         1.447777
 C         1.310990         0.277175         0.420778
 C        -0.041309        -0.060839        -0.082202
 O         1.496485         1.711480         0.937046
 C         2.896103         1.725829         1.173938
 C         3.410646         0.741980        -0.008819
 O         2.238653         0.258477        -0.649874
 H         4.211253        -0.356593         3.211700
 H         4.774186        -1.035300         1.815204
 H         5.305645         0.699258         2.138155
 H         2.169411        -1.652101         1.413565
 H         1.528673        -0.453947         2.460519
 H        -0.470327         0.760222        -0.668824
 H         0.189860        -0.939633        -0.728547
 H        -0.797858        -0.231300         0.715917
 H         3.297464         2.630278         1.597544
 H         4.308091         0.779615        -0.530397
