19
Iteration:  3192
 C         4.311738         0.722799         2.698254
 C         3.260619         0.682700         1.515229
 C         1.777957         0.602412         1.861128
 C         1.254054         0.335413         0.447636
 C        -0.160098         0.149148         0.005464
 O         1.927847         1.604936        -0.147721
 C         3.307183         1.349520         0.093779
 C         3.364763        -0.263656         0.241176
 O         2.063253        -0.836332         0.087161
 H         4.553359         1.661729         3.219582
 H         4.037140        -0.052450         3.520217
 H         5.344702         0.329098         2.366101
 H         1.449235        -0.218318         2.470226
 H         1.370129         1.506744         2.216562
 H        -0.354521        -0.795956        -0.506470
 H        -0.826281         0.260392         0.825746
 H        -0.226924         1.069224        -0.699488
 H         4.123882         1.996362        -0.301812
 H         4.193892        -1.019736         0.074222
