19
Iteration:  2314
 C         4.301476         0.903340         2.552875
 C         3.240392         0.549292         1.546020
 C         1.758785         0.470263         1.910675
 C         1.283164         0.347882         0.447438
 C        -0.175051         0.340451         0.044749
 O         1.953978         1.574527        -0.122413
 C         3.326496         1.248349         0.245393
 C         3.344861        -0.334654         0.263283
 O         2.103742        -0.832061        -0.061033
 H         4.290790         2.034213         2.669123
 H         4.125496         0.398583         3.481047
 H         5.302208         0.602993         2.133563
 H         1.580948        -0.327983         2.607525
 H         1.218722         1.303134         2.374678
 H        -0.915382         0.358612         0.853330
 H        -0.379367         1.195517        -0.535686
 H        -0.443480        -0.608449        -0.448299
 H         4.054527         1.935326        -0.058048
 H         4.202780        -1.103490         0.297484
