19
Iteration:    18
 C         4.712585        -0.202348         2.157716
 C         3.335753         0.194516         1.511567
 C         2.090658        -0.750551         1.198534
 C         1.290166         0.309532         0.380039
 C        -0.118790        -0.056523         0.020851
 O         1.367969         1.598080         0.971003
 C         2.757022         1.589183         1.364510
 C         3.387069         1.050598         0.070988
 O         2.302259         0.546127        -0.756488
 H         4.781345        -0.326847         3.273785
 H         4.952609        -1.216155         1.754126
 H         5.433796         0.601783         1.846344
 H         2.408752        -1.428424         0.402528
 H         1.515109        -1.148461         2.092302
 H        -0.484293        -0.883308         0.701438
 H        -0.831194         0.793711         0.100484
 H        -0.215545        -0.343870        -1.070567
 H         3.053892         2.406424         2.090794
 H         4.112895         1.652740        -0.484471
