19
Iteration:  4142charge 0 multiplicity 1
 C         4.220062         0.688002         2.631996
 C         3.316725         0.676019         1.487305
 C         1.786408         0.617578         1.959761
 C         1.320877         0.467886         0.554453
 C        -0.054065         0.115324         0.013962
 O         1.857518         1.608834        -0.139280
 C         3.240088         1.279909         0.084465
 C         3.375441        -0.313056         0.242511
 O         2.064086        -0.786524         0.017297
 H         3.988027         1.530696         3.218962
 H         4.015816        -0.152389         3.267932
 H         5.227316         0.766732         2.299386
 H         1.612455        -0.056417         2.767478
 H         1.624059         1.578074         2.360909
 H         0.141036         0.277373        -1.081078
 H        -0.037051        -0.917701         0.102751
 H        -0.962835         0.496202         0.481512
 H         3.898169         1.839210        -0.645261
 H         4.196416        -0.921020         0.055226
