19
Iteration:    86
 C         4.639739        -0.163216         2.297849
 C         3.507249         0.207777         1.276843
 C         2.190744        -0.682935         1.372579
 C         1.241449         0.348621         0.441556
 C        -0.115145         0.001919        -0.270947
 O         1.357346         1.584707         1.170405
 C         2.809961         1.631862         1.183484
 C         3.412597         0.852222        -0.042023
 O         2.139449         0.479523        -0.632777
 H         4.142622        -0.319060         3.334147
 H         5.085809        -1.099496         2.159378
 H         5.384011         0.706500         2.440675
 H         2.335430        -1.580028         0.841586
 H         1.855256        -0.680225         2.441969
 H        -0.049656         0.242134        -1.389602
 H        -0.414049        -1.074267        -0.135589
 H        -0.891604         0.618248         0.293216
 H         3.170280         2.500831         1.646481
 H         4.096138         1.325562        -0.753342
