19
Iteration:  4929charge 0 multiplicity 1
 C         4.357214         0.774986         2.705017
 C         3.271176         0.508337         1.553653
 C         1.708374         0.640144         1.883286
 C         1.230380         0.535801         0.453933
 C        -0.187694         0.004785         0.127837
 O         1.979033         1.627118        -0.265922
 C         3.288244         1.205993         0.199930
 C         3.360684        -0.282407         0.278859
 O         2.072725        -0.696939        -0.078840
 H         4.175682         1.583377         3.458573
 H         4.705468        -0.173173         3.184864
 H         5.189697         1.168477         2.095646
 H         1.296346        -0.041638         2.687632
 H         1.585912         1.657576         2.361330
 H        -0.430337        -0.054694        -0.981748
 H        -0.190745        -1.006775         0.406735
 H        -0.899925         0.519182         0.784898
 H         4.183244         1.759501        -0.210466
 H         4.133128        -0.967118        -0.141010
