19
Iteration:  2334charge 0 multiplicity 1
 C         4.364343         0.836510         2.619584
 C         3.213483         0.686926         1.619435
 C         1.706599         0.403652         1.880621
 C         1.275341         0.251464         0.441211
 C        -0.092285         0.364810         0.069938
 O         1.945310         1.527800        -0.264395
 C         3.247699         1.214157         0.178142
 C         3.402988        -0.197798         0.377223
 O         2.049756        -0.810318        -0.020865
 H         4.461273         1.882091         3.054220
 H         4.305399         0.142957         3.412256
 H         5.321018         0.646519         2.079054
 H         1.464427        -0.515473         2.378979
 H         1.303475         1.257036         2.410628
 H        -0.713093         0.354094         1.000625
 H        -0.118851         1.368004        -0.273413
 H        -0.607172        -0.326192        -0.635074
 H         4.034813         1.755494        -0.271667
 H         4.127114        -0.794139        -0.258686
