19
Iteration:  2262
 C         4.284201         0.720487         2.576949
 C         3.258370         0.718518         1.519721
 C         1.771985         0.589871         1.863237
 C         1.315566         0.369878         0.400805
 C        -0.190947         0.240485         0.086135
 O         1.983427         1.537157        -0.157135
 C         3.274424         1.255417         0.181019
 C         3.390510        -0.283647         0.375620
 O         2.055856        -0.781630        -0.006546
 H         4.295096         1.562295         3.261033
 H         4.116253        -0.195030         3.214466
 H         5.308123         0.613894         2.170580
 H         1.622256        -0.416655         2.341944
 H         1.202866         1.462278         2.316802
 H        -0.733494         0.584020         0.968741
 H        -0.456909         0.600946        -0.951706
 H        -0.533461        -0.815360         0.032348
 H         3.932385         1.962926        -0.189645
 H         4.290960        -0.803995        -0.020833
