19
Iteration:  2920
 C         4.392574         0.867032         2.650805
 C         3.248434         0.551459         1.660404
 C         1.717896         0.612481         1.938882
 C         1.274417         0.513414         0.373436
 C        -0.165196         0.222254         0.058543
 O         1.945514         1.517874        -0.270414
 C         3.258795         1.203133         0.205998
 C         3.364532        -0.375247         0.356828
 O         2.068121        -0.826042        -0.105686
 H         4.057782         1.568948         3.362447
 H         4.727572         0.035408         3.284292
 H         5.304934         1.295688         2.278960
 H         1.394283        -0.229415         2.572758
 H         1.513272         1.560484         2.436507
 H        -0.365586        -0.756630         0.464183
 H        -0.829370         1.016539         0.455039
 H        -0.292822         0.213181        -0.997853
 H         3.963445         2.024999        -0.117857
 H         4.128512        -0.966401        -0.099574
