19
Iteration:  4786charge 0 multiplicity 1
 C         4.369009         0.650139         2.630251
 C         3.217822         0.656406         1.615996
 C         1.690793         0.597904         1.859898
 C         1.313930         0.380212         0.385190
 C        -0.203930         0.144190         0.152313
 O         1.851586         1.510310        -0.230176
 C         3.309183         1.383847         0.162876
 C         3.427367        -0.224381         0.358997
 O         2.140933        -0.733651        -0.092111
 H         4.162561         1.231940         3.531762
 H         4.437726        -0.378627         2.983462
 H         5.330974         0.947990         2.238595
 H         1.624105        -0.153418         2.688125
 H         1.311764         1.487599         2.408086
 H        -0.219156         0.125564        -0.944330
 H        -0.524016        -0.813805         0.472775
 H        -0.849389         0.905889         0.577874
 H         4.063828         2.022844        -0.352008
 H         4.208881        -0.885678         0.126205
