19
Iteration:  4936charge 0 multiplicity 1
 C         4.339371         0.734039         2.660629
 C         3.287976         0.485236         1.600974
 C         1.760166         0.687184         1.968711
 C         1.224676         0.455181         0.394240
 C        -0.199864         0.020434         0.131554
 O         1.965598         1.652333        -0.283497
 C         3.269604         1.239879         0.132746
 C         3.321248        -0.253323         0.251603
 O         2.108422        -0.712541        -0.013286
 H         3.936356         1.428093         3.433472
 H         4.640527        -0.223458         3.125269
 H         5.273147         1.192924         2.255338
 H         1.344744        -0.033339         2.601122
 H         1.472018         1.610367         2.381041
 H        -0.300193         0.144134        -0.967161
 H        -0.082292        -1.065190         0.345858
 H        -0.970775         0.645704         0.619413
 H         4.129885         1.722851        -0.191883
 H         4.251965        -0.903453         0.021906
