19
Iteration:  2683
 C         4.221413         0.792776         2.626202
 C         3.233040         0.619407         1.458897
 C         1.799009         0.660533         1.873168
 C         1.295896         0.372534         0.470997
 C        -0.141244         0.225010         0.079072
 O         1.962458         1.517120        -0.186181
 C         3.327628         1.263163         0.175349
 C         3.392750        -0.345661         0.287292
 O         2.039945        -0.780605         0.035482
 H         4.453849         1.835319         2.909697
 H         3.933958         0.171724         3.479654
 H         5.209651         0.423060         2.256559
 H         1.603360        -0.142211         2.577495
 H         1.391659         1.615774         2.198677
 H        -0.580255        -0.564475         0.662078
 H        -0.862146         1.054698        -0.138932
 H        -0.136997        -0.333493        -0.811594
 H         4.006437         2.056692         0.148365
 H         4.319428        -0.982961         0.043066
