19
Iteration:  2407
 C         4.325509         0.735977         2.680558
 C         3.226485         0.627486         1.502915
 C         1.797898         0.684165         1.930179
 C         1.245802         0.458598         0.450923
 C        -0.240271         0.158556         0.075139
 O         1.936296         1.494277        -0.329608
 C         3.401154         1.214998         0.147909
 C         3.355728        -0.292641         0.404925
 O         2.072391        -0.722055         0.017220
 H         4.214073         1.318371         3.590015
 H         4.501674        -0.332364         3.023465
 H         5.321383         0.998463         2.328481
 H         1.452197        -0.156882         2.570636
 H         1.399060         1.628077         2.349585
 H        -0.484717        -0.929458         0.036098
 H        -0.986845         0.700728         0.624158
 H        -0.357152         0.374274        -0.997700
 H         4.123369         1.826067        -0.324313
 H         4.249022        -0.852514         0.050918
