19
Iteration:   378
 C         4.436280        -0.007207         2.362338
 C         3.340254         0.250575         1.364329
 C         2.101609        -0.547002         1.438249
 C         1.327734         0.318913         0.389353
 C        -0.013449         0.121329        -0.010922
 O         1.437169         1.640267         0.973316
 C         2.869932         1.631860         1.035017
 C         3.367793         0.738790        -0.023500
 O         2.254234         0.160243        -0.723135
 H         4.188592         0.353699         3.321202
 H         4.709809        -1.105562         2.326046
 H         5.462169         0.379093         2.111248
 H         2.326177        -1.618219         1.293362
 H         1.589118        -0.473386         2.463638
 H        -0.676205         0.279659         0.855146
 H        -0.336172         0.788745        -0.826391
 H        -0.167800        -0.930064        -0.313264
 H         3.374713         2.537755         1.294230
 H         4.210535         0.908616        -0.605034
