19
Iteration:  2718
 C         4.409858         0.734343         2.732015
 C         3.246808         0.657591         1.651369
 C         1.734513         0.677534         1.825941
 C         1.280470         0.413924         0.412344
 C        -0.242610         0.217888         0.062637
 O         1.934109         1.530768        -0.317545
 C         3.326482         1.202947         0.076699
 C         3.350511        -0.299573         0.363655
 O         2.068275        -0.793164         0.042953
 H         4.169255         1.627115         3.402798
 H         4.428682        -0.162887         3.350020
 H         5.349361         0.744891         2.118621
 H         1.430330        -0.200500         2.379269
 H         1.328292         1.557344         2.287513
 H        -0.196029        -0.829069         0.389756
 H        -0.973075         0.692600         0.672550
 H        -0.211168         0.331726        -1.029557
 H         4.015710         1.979655        -0.285319
 H         4.265514        -0.825324         0.174710
