19
Iteration:   817
 C         4.432067         0.021462         2.369684
 C         3.319902         0.343777         1.493160
 C         1.946249        -0.179212         1.814000
 C         1.271404         0.305652         0.479838
 C        -0.040248        -0.033620        -0.094518
 O         1.601304         1.751460         0.625452
 C         3.020172         1.688760         0.784870
 C         3.412061         0.440590        -0.026729
 O         2.182600        -0.044647        -0.579713
 H         4.061773         0.090274         3.357301
 H         4.755384        -1.041557         2.151641
 H         5.375517         0.658878         2.320861
 H         1.949007        -1.287175         1.894134
 H         1.413554         0.269489         2.634950
 H        -0.720656        -0.542348         0.587487
 H        -0.500183         0.932132        -0.361520
 H         0.033344        -0.697244        -1.002058
 H         3.383886         2.676096         1.006253
 H         4.277810         0.593977        -0.586705
