19
Iteration:  1005charge 0 multiplicity 1
 C         4.388659         0.127543         2.529867
 C         3.312037         0.470754         1.524098
 C         1.939318        -0.267206         1.783298
 C         1.354260         0.325599         0.444443
 C        -0.072859         0.124597         0.022918
 O         1.568262         1.742540         0.493586
 C         3.004636         1.612455         0.706392
 C         3.436583         0.371164        -0.126660
 O         2.201881        -0.186136        -0.541239
 H         4.087620         0.479044         3.508494
 H         4.641784        -0.919725         2.474543
 H         5.338156         0.639249         2.363956
 H         2.108210        -1.325047         1.741279
 H         1.497597         0.056926         2.745942
 H        -0.637667         0.780245         0.725932
 H        -0.210614         0.483509        -1.014427
 H        -0.375136        -0.908319         0.076338
 H         3.421618         2.587002         0.586860
 H         4.364075         0.052082        -0.487352
