19
Iteration:   604charge 0 multiplicity 1
 C         4.510529        -0.018079         2.476109
 C         3.414208         0.192995         1.481126
 C         2.054500        -0.377754         1.661518
 C         1.284238         0.331865         0.504152
 C        -0.077908        -0.001141        -0.104293
 O         1.507246         1.771026         0.741725
 C         2.894096         1.703502         0.854962
 C         3.417829         0.564711        -0.135365
 O         2.156839         0.075382        -0.619231
 H         4.177331         0.107309         3.520193
 H         4.904892        -1.039449         2.366972
 H         5.296456         0.643560         2.277749
 H         1.899381        -1.409207         1.441367
 H         1.497609        -0.042570         2.573680
 H        -0.774748        -0.630396         0.454155
 H        -0.557466         0.988207        -0.081667
 H         0.199667        -0.415270        -1.100584
 H         3.311935         2.699354         1.048498
 H         4.357067         0.814814        -0.738105
