19
Iteration:   469charge 0 multiplicity 1
 C         4.544624        -0.127298         2.260462
 C         3.321782         0.355948         1.477936
 C         1.974196        -0.423277         1.647335
 C         1.325536         0.269507         0.360164
 C        -0.126671         0.006337        -0.015286
 O         1.481142         1.739178         0.721515
 C         2.826148         1.705253         1.088324
 C         3.422378         0.609403         0.076037
 O         2.298850         0.174954        -0.706849
 H         4.380379        -0.154464         3.369974
 H         4.822179        -1.012889         1.823497
 H         5.450859         0.500704         2.092971
 H         2.393282        -1.378430         1.172787
 H         1.591799        -0.492505         2.668338
 H        -0.269238        -0.576440        -0.951757
 H        -0.613848        -0.564143         0.779413
 H        -0.565349         0.979676        -0.171393
 H         3.381505         2.646794         1.198012
 H         4.397140         0.695740        -0.375990
