19
Iteration:   942charge 0 multiplicity 1
 C         4.450761         0.134323         2.364186
 C         3.244079         0.314644         1.522183
 C         1.926367        -0.249393         1.747250
 C         1.257093         0.424793         0.455874
 C        -0.038652        -0.003864        -0.016940
 O         1.634964         1.765125         0.541231
 C         3.018467         1.643067         0.807594
 C         3.427679         0.366654         0.066291
 O         2.186961        -0.075441        -0.591968
 H         4.279562         0.403697         3.508347
 H         4.768963        -0.902510         2.418380
 H         5.220013         0.716298         1.905327
 H         1.788386        -1.337398         1.926406
 H         1.400073         0.278484         2.591854
 H        -0.281960         0.588760        -0.957152
 H         0.043811        -1.064744        -0.342568
 H        -0.853879         0.155655         0.694946
 H         3.616624         2.510885         0.641757
 H         4.347697         0.065100        -0.356539
