19
Iteration:  3325
 C         4.382191         0.810558         2.597203
 C         3.170499         0.689073         1.564894
 C         1.640132         0.652789         1.804844
 C         1.258386         0.368011         0.378730
 C        -0.215779         0.125485         0.148375
 O         2.042383         1.613212        -0.239832
 C         3.355790         1.180727         0.173290
 C         3.351358        -0.380262         0.486274
 O         2.094476        -0.702495        -0.052877
 H         4.327241         1.365873         3.518882
 H         4.376579        -0.263370         2.961036
 H         5.277539         0.918606         1.950019
 H         1.358416        -0.210104         2.389053
 H         1.278089         1.597983         2.140729
 H        -0.378349         0.368581        -0.917484
 H        -0.313580        -0.974196         0.315738
 H        -0.896378         0.488833         0.881289
 H         4.191946         1.726670        -0.154683
 H         4.198551        -0.965215         0.318391
