19
Iteration:  4019
 C         4.336743         0.701085         2.654017
 C         3.253522         0.700748         1.558860
 C         1.754306         0.566393         1.896012
 C         1.312831         0.307878         0.449786
 C        -0.153734         0.193615         0.023077
 O         1.925866         1.554801        -0.141817
 C         3.221318         1.319981         0.100514
 C         3.377869        -0.217869         0.325216
 O         2.089594        -0.781653        -0.021197
 H         3.926376         1.364554         3.420331
 H         4.474230        -0.306499         3.075420
 H         5.356399         1.015660         2.381785
 H         1.592385        -0.338934         2.433503
 H         1.237437         1.432069         2.300910
 H        -0.219111        -0.181344        -0.990513
 H        -0.733537        -0.492511         0.743495
 H        -0.463240         1.252404        -0.042708
 H         4.050415         1.891660        -0.349717
 H         4.215822        -0.894580         0.113053
