19
Iteration:  2051
 C         4.356907         0.573018         2.600801
 C         3.243476         0.600858         1.570047
 C         1.752442         0.440720         1.891236
 C         1.291444         0.385667         0.445869
 C        -0.215953         0.228955         0.101350
 O         1.896723         1.565045        -0.162005
 C         3.273950         1.354893         0.192589
 C         3.389635        -0.134966         0.302036
 O         2.146964        -0.684556        -0.072474
 H         3.966905         1.200709         3.441995
 H         4.559339        -0.429646         2.881550
 H         5.288187         1.055003         2.282868
 H         1.599110        -0.521475         2.383870
 H         1.327413         1.262950         2.459065
 H        -0.553811        -0.838513         0.183150
 H        -0.872708         0.865800         0.673958
 H        -0.321958         0.464030        -0.954028
 H         3.873051         2.149515        -0.199120
 H         4.254108        -0.707820        -0.082642
