19
Iteration:   996charge 0 multiplicity 1
 C         4.429364         0.084420         2.450340
 C         3.273880         0.398489         1.486445
 C         1.970489        -0.204605         1.821375
 C         1.309834         0.324820         0.469444
 C        -0.069756         0.123423         0.044942
 O         1.558858         1.744729         0.435708
 C         2.939564         1.695362         0.701011
 C         3.462116         0.353453        -0.011335
 O         2.278087        -0.196693        -0.561101
 H         4.105936         0.383553         3.601092
 H         4.595148        -0.987641         2.399675
 H         5.322867         0.644156         2.304993
 H         2.166939        -1.297687         1.725729
 H         1.228382         0.018386         2.649969
 H        -0.673993         0.991880         0.493768
 H        -0.109664         0.250338        -1.061613
 H        -0.534715        -0.806709         0.426877
 H         3.337139         2.622707         1.077013
 H         4.298955         0.114196        -0.589792
