19
Iteration:  4874charge 0 multiplicity 1
 C         4.360841         0.828870         2.626095
 C         3.306913         0.588527         1.523377
 C         1.763908         0.372030         1.877131
 C         1.289221         0.322387         0.433472
 C        -0.177066         0.450455         0.043628
 O         1.831009         1.379996        -0.179097
 C         3.146551         1.302170         0.198487
 C         3.414538        -0.118934         0.264655
 O         2.193253        -0.813697         0.047432
 H         4.379636         1.891948         2.963164
 H         4.117718         0.207650         3.519654
 H         5.374941         0.497711         2.354411
 H         1.788467        -0.689850         2.270608
 H         1.258519         1.169335         2.524516
 H        -0.286200         0.338978        -1.101061
 H        -0.867635        -0.145424         0.508981
 H        -0.524984         1.496096         0.190940
 H         3.814845         2.065372        -0.069923
 H         4.217708        -0.875443        -0.089127
