19
Iteration:  4724charge 0 multiplicity 1
 C         4.350327         0.852905         2.612658
 C         3.218973         0.575627         1.586215
 C         1.790886         0.490878         1.949796
 C         1.289269         0.365968         0.333949
 C        -0.153604         0.168036         0.101574
 O         1.909201         1.563466        -0.142514
 C         3.279946         1.229616         0.272267
 C         3.344551        -0.272740         0.314195
 O         2.103473        -0.699862        -0.138530
 H         4.086622         1.687683         3.297216
 H         4.480842        -0.056077         3.242468
 H         5.321336         1.103390         2.164408
 H         1.599125        -0.446681         2.497986
 H         1.410907         1.424817         2.438228
 H        -0.527874         0.568560        -0.958051
 H        -0.389046        -0.872877         0.069392
 H        -0.746544         0.874315         0.726239
 H         3.900249         1.807147        -0.349199
 H         4.137321        -0.858710        -0.113971
