19
Iteration:  1700charge 0 multiplicity 1
 C         4.360301         0.530301         2.543302
 C         3.261263         0.467459         1.516849
 C         1.849699         0.222683         1.857499
 C         1.247215         0.289299         0.421788
 C        -0.206091         0.272554         0.028992
 O         1.764635         1.641950         0.160645
 C         3.168758         1.479556         0.451477
 C         3.466145        -0.050353         0.177799
 O         2.223225        -0.572752        -0.320738
 H         4.062549         1.277064         3.345462
 H         4.570271        -0.457900         2.922475
 H         5.346110         0.889241         2.307740
 H         1.790708        -0.842513         2.172639
 H         1.339429         0.842503         2.606883
 H        -0.836128         0.788980         0.722963
 H        -0.434771         0.745610        -0.930342
 H        -0.705230        -0.737230         0.017024
 H         3.841882         2.364789         0.202137
 H         4.370969        -0.533644        -0.211306
