19
Iteration:  3580
 C         4.341432         0.912910         2.573077
 C         3.234557         0.623343         1.547906
 C         1.775552         0.465146         1.931763
 C         1.300391         0.307179         0.422825
 C        -0.198715         0.325215        -0.007107
 O         1.938038         1.442313        -0.121813
 C         3.281094         1.260683         0.213141
 C         3.368198        -0.285854         0.361651
 O         2.093182        -0.775098        -0.088045
 H         4.210664         1.991259         2.898697
 H         3.980346         0.399551         3.495579
 H         5.366732         0.613282         2.240320
 H         1.454781        -0.353355         2.615333
 H         1.408116         1.368496         2.462190
 H        -0.398130         0.331245        -1.121784
 H        -0.721582        -0.544817         0.419740
 H        -0.540061         1.352704         0.374932
 H         4.179758         1.801476        -0.123592
 H         4.250492        -0.974259         0.141439
