19
Iteration:  3481charge 0 multiplicity 1
 C         4.327031         0.736936         2.692764
 C         3.362777         0.652066         1.562739
 C         1.799399         0.622572         1.864656
 C         1.241930         0.395316         0.447729
 C        -0.182697         0.235074        -0.015422
 O         1.875147         1.493800        -0.311641
 C         3.232576         1.262597         0.137446
 C         3.371532        -0.180904         0.330881
 O         2.114950        -0.835467         0.137433
 H         4.044631         1.317431         3.606588
 H         4.333659        -0.351805         2.997552
 H         5.373861         0.856326         2.352001
 H         1.571645        -0.303578         2.435420
 H         1.377068         1.420711         2.510667
 H        -0.152813         0.091607        -1.080357
 H        -0.701910        -0.640683         0.374406
 H        -0.678880         1.219967         0.142672
 H         3.922838         1.954925        -0.286323
 H         4.157530        -0.809084         0.051991
