19
Iteration:   183charge 0 multiplicity 1
 C         4.429292        -0.193915         2.232378
 C         3.360281         0.261611         1.347343
 C         2.184903        -0.565935         1.413031
 C         1.372921         0.257699         0.469323
 C         0.098021        -0.034396        -0.124680
 O         1.406928         1.616878         1.050389
 C         2.834100         1.710918         1.123120
 C         3.371740         0.787425        -0.022510
 O         2.123496         0.406792        -0.659098
 H         4.038784         0.006683         3.331509
 H         4.696739        -1.260781         2.234003
 H         5.360053         0.523643         2.125787
 H         2.408443        -1.505266         0.927974
 H         1.680836        -0.410558         2.467387
 H        -0.582437        -0.495280         0.653823
 H        -0.356088         0.978184        -0.296765
 H         0.107580        -0.547936        -1.113968
 H         3.163297         2.619415         1.611041
 H         4.084284         1.052309        -0.867981
