19
Iteration:  2846
 C         4.369100         0.737011         2.656948
 C         3.325358         0.675529         1.583912
 C         1.727411         0.607186         1.936340
 C         1.297871         0.268398         0.335474
 C        -0.307800         0.297948         0.068710
 O         1.946318         1.472079        -0.379769
 C         3.253409         1.296093         0.180127
 C         3.433379        -0.224407         0.348929
 O         2.103741        -0.803398         0.077770
 H         4.735237         1.666986         3.033882
 H         4.046609         0.208270         3.555654
 H         5.348380         0.303194         2.449968
 H         1.364404        -0.230954         2.608446
 H         1.010567         1.436867         2.175717
 H        -0.651215        -0.687191        -0.297605
 H        -0.774038         0.548180         1.078142
 H        -0.551167         1.059706        -0.704828
 H         4.172753         1.982807         0.006697
 H         4.235613        -0.911064         0.158775
