19
Iteration:  4348charge 0 multiplicity 1
 C         4.338012         0.768282         2.681298
 C         3.297909         0.643403         1.545339
 C         1.791817         0.493630         1.926501
 C         1.274230         0.252204         0.480698
 C        -0.147850         0.206857         0.053895
 O         1.916446         1.625681        -0.157097
 C         3.231748         1.272326         0.070392
 C         3.363552        -0.235846         0.289395
 O         2.061520        -0.726414        -0.016643
 H         3.864998         1.362970         3.511130
 H         4.601534        -0.185802         3.201157
 H         5.220527         1.299231         2.229774
 H         1.495396        -0.301764         2.629559
 H         1.537987         1.523297         2.111059
 H        -0.142024         0.504655        -1.005669
 H        -0.320508        -0.864608        -0.077163
 H        -0.941467         0.728721         0.567465
 H         4.014335         1.749897        -0.454538
 H         4.146687        -1.038696         0.065966
