19
Iteration:  1355
 C         4.388607         0.451253         2.568991
 C         3.251842         0.280906         1.570399
 C         1.776868        -0.038100         1.807444
 C         1.308037         0.376919         0.389491
 C        -0.156204         0.098495         0.125582
 O         1.752628         1.771673         0.302690
 C         3.140843         1.456575         0.577822
 C         3.432646         0.157855         0.014965
 O         2.238186        -0.303547        -0.490389
 H         4.010316         1.061973         3.398749
 H         4.875158        -0.529311         2.864671
 H         5.296937         0.971026         2.081041
 H         1.519901        -1.097435         1.859619
 H         1.376149         0.564528         2.612388
 H        -0.376235         0.153196        -0.953766
 H        -0.355107        -0.899009         0.538882
 H        -0.939035         0.863769         0.487688
 H         3.759040         2.393716         0.593546
 H         4.187204        -0.382610        -0.568002
