19
Iteration:  2069charge 0 multiplicity 1
 C         4.257612         0.613982         2.606063
 C         3.239866         0.629851         1.560483
 C         1.808265         0.581875         1.974906
 C         1.299208         0.375029         0.431888
 C        -0.081808         0.096938         0.068993
 O         1.916202         1.649390        -0.125600
 C         3.245132         1.317571         0.292639
 C         3.377667        -0.251624         0.163219
 O         2.052861        -0.663841        -0.152396
 H         4.227152         1.326563         3.498125
 H         4.380286        -0.539818         2.842540
 H         5.249703         0.857831         2.174611
 H         1.549924        -0.308247         2.557472
 H         1.514225         1.588878         2.302639
 H        -0.119529        -1.016304        -0.036112
 H        -0.799688         0.248563         0.973975
 H        -0.575719         0.751093        -0.651543
 H         4.083465         1.933062        -0.003461
 H         4.150370        -0.989629         0.171562
