19
Iteration:  1558
 C         4.372073         0.486929         2.543278
 C         3.203200         0.377519         1.571193
 C         1.781128         0.171700         1.864561
 C         1.255480         0.420623         0.433058
 C        -0.117370         0.090741         0.081334
 O         1.799336         1.697312         0.243004
 C         3.161791         1.463487         0.501500
 C         3.439374        -0.054165         0.081848
 O         2.223716        -0.376063        -0.448631
 H         4.108553         1.475074         3.058315
 H         4.503771        -0.418072         3.137080
 H         5.308296         0.674232         1.971456
 H         1.663861        -0.866058         2.231497
 H         1.317307         0.864552         2.605731
 H        -0.199987        -0.736061        -0.634606
 H        -0.647973        -0.213832         0.913788
 H        -0.692305         0.898072        -0.430248
 H         3.742109         2.342695         0.452122
 H         4.298566        -0.649991        -0.368839
