19
Iteration:  1863
 C         4.357536         0.637070         2.612914
 C         3.245796         0.397964         1.572505
 C         1.749873         0.291029         1.853685
 C         1.278189         0.367418         0.477171
 C        -0.176836         0.188118         0.072112
 O         1.906418         1.648406         0.033416
 C         3.212536         1.392754         0.314575
 C         3.439220        -0.157757         0.140018
 O         2.098165        -0.535481        -0.258069
 H         3.935345         1.294148         3.479790
 H         4.843980        -0.276199         2.867390
 H         5.149288         1.315022         2.358954
 H         1.384070        -0.566534         2.422303
 H         1.503458         1.195252         2.412989
 H        -0.207021        -0.016773        -1.011534
 H        -0.417509        -0.711601         0.792893
 H        -0.920804         0.993168         0.418855
 H         3.937027         2.121047         0.138568
 H         4.360770        -0.573842        -0.239252
