19
Iteration:  2925charge 0 multiplicity 1
 C         4.334367         0.866829         2.630740
 C         3.262818         0.579521         1.621821
 C         1.739570         0.586109         1.976969
 C         1.229228         0.481381         0.362097
 C        -0.093890         0.255555         0.076252
 O         1.947520         1.497578        -0.267297
 C         3.246893         1.188099         0.206058
 C         3.359880        -0.342139         0.381058
 O         2.083440        -0.812534        -0.107724
 H         4.011981         1.605837         3.463327
 H         4.771392        -0.025225         3.127652
 H         5.266893         1.268655         2.108688
 H         1.314356        -0.344710         2.423663
 H         1.470550         1.595786         2.407675
 H        -0.471316        -0.669090         0.613095
 H        -0.675420         1.101635         0.435576
 H        -0.303676         0.209242        -1.062404
 H         3.966473         1.956733         0.011000
 H         4.125754        -1.076513        -0.026831
