19
Iteration:  2860charge 0 multiplicity 1
 C         4.382379         0.680506         2.694814
 C         3.193154         0.692967         1.610032
 C         1.727946         0.598982         1.846030
 C         1.273202         0.421483         0.430790
 C        -0.196944         0.288063         0.066216
 O         1.925466         1.389253        -0.333385
 C         3.254062         1.266209         0.113807
 C         3.397446        -0.193094         0.390661
 O         2.162255        -0.792122         0.075085
 H         4.563520         1.759771         2.942459
 H         3.986535         0.101476         3.513809
 H         5.186257         0.185601         2.135944
 H         1.507464        -0.290453         2.454073
 H         1.508754         1.515751         2.401795
 H        -0.550634        -0.719459        -0.236624
 H        -0.757137         0.527101         0.933509
 H        -0.395415         1.030552        -0.770325
 H         3.825981         2.005540        -0.470031
 H         4.268118        -0.763478        -0.032798
