19
Iteration:  4310charge 0 multiplicity 1
 C         4.346025         0.596758         2.611109
 C         3.220281         0.647577         1.614284
 C         1.738049         0.494822         1.847208
 C         1.285254         0.313446         0.426348
 C        -0.194693         0.316689         0.118621
 O         1.894015         1.441751        -0.415181
 C         3.168655         1.407767         0.209258
 C         3.435266        -0.101551         0.353552
 O         2.210299        -0.767719         0.084989
 H         4.528845         1.475073         3.176843
 H         4.297002        -0.311178         3.189114
 H         5.287804         0.538393         2.110102
 H         1.507151        -0.223274         2.664136
 H         1.252196         1.430942         2.284135
 H        -0.406813         0.539796        -0.927135
 H        -0.491164        -0.763970         0.339642
 H        -0.828579         0.805162         0.877640
 H         3.840109         2.258223        -0.159614
 H         4.279697        -0.668795         0.124097
