19
Iteration:  3211
 C         4.300327         0.743791         2.600629
 C         3.260091         0.611522         1.567395
 C         1.748770         0.626876         1.901079
 C         1.298796         0.310866         0.401037
 C        -0.216446         0.130777         0.086353
 O         2.023282         1.596830        -0.229075
 C         3.273690         1.223021         0.256908
 C         3.352112        -0.273197         0.369508
 O         2.057892        -0.697083        -0.076681
 H         4.388197         1.805661         2.804246
 H         4.073855         0.277621         3.514174
 H         5.263049         0.447252         2.249588
 H         1.519517        -0.157282         2.635183
 H         1.411283         1.629627         2.151765
 H        -0.153479        -0.799540        -0.467855
 H        -0.797574        -0.087222         1.012748
 H        -0.653838         0.905271        -0.559416
 H         4.075783         1.746040        -0.150111
 H         4.286284        -0.673032         0.070625
