19
Iteration:  3666charge 0 multiplicity 1
 C         4.425329         0.662076         2.635209
 C         3.103412         0.667172         1.738024
 C         1.620413         0.669601         1.861153
 C         1.353493         0.362539         0.282146
 C        -0.200497         0.163691         0.208453
 O         1.973657         1.453821        -0.317548
 C         3.296694         1.354929         0.197960
 C         3.413082        -0.195853         0.374243
 O         2.124614        -0.758971        -0.087322
 H         4.536801         1.486099         3.364863
 H         4.602878        -0.313546         3.119478
 H         5.357336         0.838877         2.099059
 H         1.262346        -0.275495         2.268239
 H         0.988566         1.529869         2.110852
 H        -0.697041        -0.102798        -0.843525
 H        -0.542170        -0.760980         0.772117
 H        -0.687066         1.190305         0.557642
 H         4.148603         1.976162        -0.019693
 H         4.235930        -0.921633         0.043437
