19
Iteration:   449
 C         4.546143        -0.019867         2.239376
 C         3.231243         0.252498         1.569332
 C         1.921931        -0.496897         1.467013
 C         1.320599         0.342977         0.336416
 C        -0.116371         0.057342         0.060664
 O         1.470649         1.660035         0.822629
 C         2.944720         1.662513         0.980474
 C         3.444061         0.731308         0.045080
 O         2.364551         0.139307        -0.656677
 H         4.518539         0.013492         3.378487
 H         4.992406        -0.897743         1.868422
 H         5.307136         0.677759         2.004949
 H         1.776372        -1.613254         1.252930
 H         1.217497        -0.238217         2.236639
 H        -0.188504        -0.966062        -0.384628
 H        -0.697832         0.022081         0.982161
 H        -0.590261         0.664338        -0.718332
 H         3.391729         2.551022         1.473161
 H         4.313642         0.655951        -0.546449
