19
Iteration:  2210
 C         4.306885         0.655301         2.622299
 C         3.259189         0.689065         1.564423
 C         1.796027         0.536940         1.861811
 C         1.294995         0.413488         0.415112
 C        -0.192223         0.228694         0.059116
 O         1.892517         1.530529        -0.198942
 C         3.320294         1.291087         0.217549
 C         3.341711        -0.221960         0.296210
 O         2.109597        -0.765906         0.007402
 H         4.119549         1.213922         3.515448
 H         4.568452        -0.406904         2.979805
 H         5.245079         1.048283         2.263606
 H         1.448626        -0.347439         2.485892
 H         1.524326         1.592893         2.179462
 H        -0.684571         1.267311        -0.000939
 H        -0.405338        -0.467260        -0.915745
 H        -0.711355        -0.299429         0.902240
 H         4.010623         1.867291        -0.318636
 H         4.247343        -0.838528         0.101190
