19
Iteration:  2383
 C         4.342128         0.687306         2.639704
 C         3.199773         0.646149         1.554651
 C         1.760527         0.734706         1.907041
 C         1.356743         0.350413         0.344719
 C        -0.041192         0.169109         0.077096
 O         1.938239         1.566554        -0.222005
 C         3.280843         1.209568         0.168555
 C         3.293727        -0.288714         0.284454
 O         2.034492        -0.738090         0.064498
 H         3.963421         1.350223         3.415983
 H         4.497832        -0.321749         3.221348
 H         5.340499         1.096856         2.440582
 H         1.343863        -0.048879         2.596365
 H         1.222805         1.696388         2.124666
 H        -0.323976        -0.747051         0.587443
 H        -0.683916         1.036720         0.467541
 H        -0.255652        -0.160107        -0.913744
 H         3.996324         1.729272        -0.538350
 H         3.945408        -1.013007        -0.031150
