19
Iteration:  2225
 C         4.395188         0.596034         2.681112
 C         3.279072         0.657296         1.623821
 C         1.744270         0.634082         1.884001
 C         1.314635         0.312371         0.391830
 C        -0.137070         0.281458         0.100503
 O         1.922233         1.428960        -0.332920
 C         3.156724         1.343340         0.208573
 C         3.403214        -0.147417         0.285914
 O         2.057192        -0.774706         0.024129
 H         4.110207         1.226899         3.576683
 H         4.444246        -0.423029         2.940949
 H         5.383371         0.900652         2.274133
 H         1.553840        -0.132985         2.588940
 H         1.222739         1.446767         2.275441
 H        -0.580555         1.240100         0.191951
 H        -0.299734         0.115067        -0.899646
 H        -0.533487        -0.494835         0.707976
 H         3.914591         2.181508        -0.028400
 H         4.160245        -0.685571        -0.233651
