19
Iteration:  2140
 C         4.316114         0.811622         2.572117
 C         3.204086         0.551356         1.617363
 C         1.746004         0.328919         1.945836
 C         1.288951         0.311401         0.401173
 C        -0.144641         0.398515         0.079554
 O         1.828016         1.513412        -0.123362
 C         3.231276         1.258058         0.159419
 C         3.441904        -0.195342         0.267257
 O         2.189062        -0.724406        -0.074559
 H         4.551803         1.835924         3.012086
 H         4.134877         0.162680         3.386899
 H         5.284532         0.372121         2.173477
 H         1.511374        -0.584452         2.532884
 H         1.313233         1.263344         2.361777
 H        -0.113543         0.922890        -0.938144
 H        -0.730724        -0.497484         0.115722
 H        -0.601244         1.177113         0.783284
 H         4.047078         2.013108        -0.257509
 H         4.242411        -0.895864         0.049268
