19
Iteration:  2697charge 0 multiplicity 1
 C         4.271999         0.758007         2.628927
 C         3.286833         0.630720         1.601050
 C         1.807593         0.678840         1.923517
 C         1.299963         0.416544         0.470045
 C        -0.103336         0.093969         0.028570
 O         1.970795         1.511337        -0.259695
 C         3.263646         1.240423         0.163886
 C         3.316861        -0.330011         0.313944
 O         2.028996        -0.681423        -0.010996
 H         4.203387         1.783692         3.142744
 H         3.972236         0.067254         3.440395
 H         5.339360         0.492741         2.367880
 H         1.451697        -0.023531         2.669221
 H         1.581540         1.684445         2.255855
 H        -0.504506        -0.711125         0.703077
 H        -0.652749         0.958439         0.338570
 H        -0.105101        -0.044062        -1.094946
 H         3.969383         1.762005        -0.499472
 H         3.945603        -1.135382         0.012208
