19
Iteration:  2894charge 0 multiplicity 1
 C         4.276990         0.766491         2.591583
 C         3.296997         0.647639         1.587073
 C         1.752135         0.642813         1.875101
 C         1.235502         0.333853         0.417509
 C        -0.174045         0.106633         0.014348
 O         2.024746         1.555828        -0.196270
 C         3.308706         1.239512         0.133889
 C         3.380726        -0.285205         0.347890
 O         2.006113        -0.725546         0.054855
 H         4.284012         1.745403         3.191582
 H         4.300219        -0.001369         3.404444
 H         5.340101         0.784298         2.266433
 H         1.519997        -0.059906         2.681228
 H         1.564256         1.624535         2.323050
 H        -0.433813        -0.957485        -0.075343
 H        -0.719161         0.722506         0.712694
 H        -0.336234         0.633710        -0.948885
 H         4.043811         1.901814        -0.200573
 H         3.937484        -1.126868        -0.134232
