19
Iteration:   431
 C         4.546976         0.050410         2.295302
 C         3.308957         0.181872         1.419835
 C         1.936410        -0.514565         1.524118
 C         1.302185         0.340990         0.410757
 C        -0.072054         0.034804        -0.014670
 O         1.519568         1.704763         0.856176
 C         2.872735         1.617118         1.114114
 C         3.449868         0.596889        -0.007790
 O         2.266650         0.224934        -0.748450
 H         4.268567         0.132556         3.344741
 H         5.081000        -0.999543         2.258483
 H         5.219795         0.901692         2.057289
 H         1.996870        -1.551636         1.317198
 H         1.412033        -0.514040         2.506905
 H        -0.388752        -1.002030         0.143173
 H        -0.650771         0.741956         0.609491
 H        -0.303442         0.343338        -1.051232
 H         3.220374         2.608563         1.331179
 H         4.333983         0.788956        -0.561752
