19
Iteration:  3779
 C         4.418169         0.776723         2.592260
 C         3.172560         0.687887         1.663498
 C         1.694347         0.480238         1.847189
 C         1.347380         0.325420         0.297676
 C        -0.203804         0.227478         0.114166
 O         1.968552         1.496379        -0.238909
 C         3.202255         1.292184         0.276019
 C         3.379517        -0.201259         0.424509
 O         2.132009        -0.784143        -0.116653
 H         4.350798         1.749772         3.105021
 H         4.549537        -0.057479         3.257642
 H         5.232690         0.935344         1.882667
 H         1.470084        -0.435430         2.413066
 H         1.068257         1.312242         2.186552
 H        -0.677744         0.232273        -0.894436
 H        -0.615949        -0.542631         0.821865
 H        -0.551341         1.178090         0.525344
 H         4.016565         1.927130        -0.015741
 H         4.344851        -0.790606         0.383354
