19
Iteration:  3454
 C         4.309643         0.849982         2.541525
 C         3.177854         0.626056         1.656194
 C         1.686683         0.590138         1.874837
 C         1.306838         0.345261         0.398978
 C        -0.109177         0.222301         0.122800
 O         2.009886         1.467092        -0.238752
 C         3.293308         1.174839         0.244757
 C         3.333725        -0.254758         0.427517
 O         2.095230        -0.705033        -0.139822
 H         4.260979         1.695616         3.231824
 H         4.481876        -0.125793         2.999057
 H         5.189192         1.023027         1.904139
 H         1.405084        -0.302100         2.444953
 H         1.165338         1.431026         2.312140
 H        -0.440895        -0.263317        -0.846763
 H        -0.526734        -0.442719         0.956622
 H        -0.483994         1.252443         0.186501
 H         4.052054         1.888384        -0.095755
 H         4.150179        -1.023428         0.326718
