19
Iteration:   651charge 0 multiplicity 1
 C         4.505172        -0.032812         2.292241
 C         3.257879         0.293520         1.597629
 C         1.854144        -0.316214         1.636985
 C         1.347430         0.304773         0.322211
 C        -0.031510         0.014596         0.077392
 O         1.494354         1.749999         0.581729
 C         2.920351         1.674016         0.919362
 C         3.427989         0.506578         0.067848
 O         2.309148         0.108392        -0.623828
 H         4.452106         0.065552         3.318802
 H         4.870576        -1.082948         2.026228
 H         5.317561         0.685334         1.981582
 H         1.933768        -1.415305         1.489322
 H         1.383808        -0.034406         2.568104
 H        -0.241217        -1.041374        -0.275809
 H        -0.529852         0.043229         1.063932
 H        -0.354251         0.740608        -0.684446
 H         3.492709         2.553741         1.197356
 H         4.348218         0.435462        -0.400947
