19
Iteration:  1091charge 0 multiplicity 1
 C         4.486022         0.195846         2.509737
 C         3.289998         0.446304         1.575546
 C         1.975120        -0.162257         1.720492
 C         1.251671         0.330061         0.410704
 C        -0.172339         0.171629         0.014114
 O         1.632232         1.670516         0.426748
 C         2.995643         1.639106         0.678240
 C         3.417649         0.288499         0.047509
 O         2.246162        -0.280636        -0.513601
 H         4.424882         0.677270         3.477642
 H         4.465138        -0.947109         2.725309
 H         5.487196         0.563635         1.985829
 H         1.965443        -1.205372         1.873323
 H         1.422014         0.262288         2.554397
 H        -0.322536        -0.775431        -0.520745
 H        -0.829034         0.278767         0.892388
 H        -0.414778         0.952436        -0.675552
 H         3.421698         2.624723         0.664355
 H         4.313738         0.417758        -0.490930
