19
Iteration:   931charge 0 multiplicity 1
 C         4.423713         0.139982         2.412202
 C         3.308853         0.236093         1.485115
 C         1.855732        -0.237935         1.792978
 C         1.325856         0.370258         0.489939
 C        -0.094768         0.031356        -0.059556
 O         1.608690         1.781478         0.568874
 C         3.023885         1.620331         0.745898
 C         3.423279         0.395370        -0.071055
 O         2.237085        -0.051714        -0.493332
 H         4.107537         0.691059         3.418760
 H         4.769761        -0.881672         2.514185
 H         5.290114         0.685910         2.117373
 H         1.983831        -1.326629         1.606325
 H         1.371012         0.000524         2.780493
 H        -0.128238         0.366842        -1.145462
 H        -0.105102        -1.072704         0.057925
 H        -0.945865         0.392585         0.534086
 H         3.597722         2.534118         0.701397
 H         4.239237         0.278944        -0.760476
