19
Iteration:  2574charge 0 multiplicity 1
 C         4.288983         0.720945         2.609036
 C         3.248656         0.762423         1.611328
 C         1.785264         0.623126         1.951939
 C         1.310953         0.331335         0.417251
 C        -0.251446         0.164493         0.029248
 O         2.010412         1.522917        -0.280788
 C         3.345710         1.192698         0.142745
 C         3.360275        -0.285365         0.334884
 O         2.019832        -0.722589         0.028948
 H         4.133530         1.300358         3.589940
 H         4.521107        -0.363315         2.947399
 H         5.311033         1.081817         2.273232
 H         1.461131        -0.159556         2.642055
 H         1.352884         1.558075         2.286209
 H        -0.822490        -0.035450         0.933110
 H        -0.643347         1.191615        -0.359452
 H        -0.375417        -0.621379        -0.683849
 H         4.188602         1.874434        -0.192423
 H         4.247759        -0.774675        -0.000629
