19
Iteration:  4591charge 0 multiplicity 1
 C         4.354197         0.796392         2.550773
 C         3.202440         0.568164         1.609902
 C         1.745189         0.519234         1.871619
 C         1.257221         0.351382         0.393922
 C        -0.208975         0.067293         0.167569
 O         1.996653         1.682390        -0.173137
 C         3.341473         1.300100         0.272462
 C         3.331625        -0.297672         0.357061
 O         2.077848        -0.678131        -0.208908
 H         4.154042         1.375126         3.485211
 H         4.767385        -0.224629         2.761820
 H         5.216846         1.295208         2.054351
 H         1.338485        -0.394687         2.405556
 H         1.336330         1.464541         2.310051
 H        -0.402940        -0.096602        -0.931943
 H        -0.419691        -0.861670         0.798929
 H        -0.886090         0.799977         0.671836
 H         4.171327         1.964604        -0.015883
 H         4.173808        -1.067040         0.450581
