19
Iteration:  4052
 C         4.335879         0.885207         2.693273
 C         3.325832         0.476798         1.541044
 C         1.816350         0.484795         1.993534
 C         1.232963         0.417552         0.496078
 C        -0.203968         0.196282        -0.058703
 O         1.965668         1.540280        -0.142446
 C         3.241980         1.216709         0.165293
 C         3.378365        -0.245828         0.184800
 O         2.058583        -0.710982        -0.030265
 H         3.866225         1.782657         3.109457
 H         4.341601         0.194150         3.528681
 H         5.317167         1.210420         2.303388
 H         1.480474        -0.409765         2.444905
 H         1.494572         1.277540         2.661987
 H         0.026740        -0.225591        -1.028887
 H        -0.884626        -0.456802         0.586533
 H        -0.694864         1.187997        -0.035629
 H         3.941227         1.955971        -0.180271
 H         4.116601        -0.993376        -0.244075
