19
Iteration:  2424
 C         4.302380         0.726591         2.588170
 C         3.261381         0.650418         1.603319
 C         1.741759         0.590049         1.922430
 C         1.318632         0.365872         0.397278
 C        -0.238825         0.286462         0.027701
 O         1.999393         1.429627        -0.321321
 C         3.224910         1.232027         0.164143
 C         3.421386        -0.223209         0.327619
 O         2.078861        -0.765275         0.098686
 H         4.075726         1.625619         3.256773
 H         4.506460        -0.128500         3.268640
 H         5.288922         1.007307         2.159215
 H         1.467868        -0.258205         2.559480
 H         1.443951         1.577498         2.318674
 H        -0.511291        -0.752363         0.035131
 H        -0.668068         0.805841         0.965068
 H        -0.534376         0.869906        -0.841896
 H         4.031221         1.985049        -0.169994
 H         4.188808        -0.934530         0.204659
