19
Iteration:  4561charge 0 multiplicity 1
 C         4.305960         0.841968         2.635428
 C         3.276347         0.541650         1.609579
 C         1.819729         0.460893         1.931486
 C         1.294283         0.400769         0.469065
 C        -0.157006         0.298864         0.039926
 O         1.862472         1.482081        -0.168366
 C         3.257590         1.251273         0.207600
 C         3.343681        -0.192852         0.194421
 O         2.099079        -0.789628        -0.037238
 H         4.061619         1.275991         3.634055
 H         4.751227        -0.184027         2.763562
 H         5.105169         1.467060         2.175111
 H         1.393045        -0.420440         2.346683
 H         1.571567         1.403711         2.403362
 H        -0.225952         0.472915        -1.089213
 H        -0.281012        -0.737065         0.147528
 H        -0.687821         0.968334         0.697197
 H         3.903288         2.068214        -0.168948
 H         4.252155        -0.657526        -0.101300
