19
Iteration:  2125charge 0 multiplicity 1
 C         4.310265         0.671133         2.580125
 C         3.226221         0.683932         1.537909
 C         1.759911         0.394680         1.905959
 C         1.340478         0.288424         0.489246
 C        -0.084853         0.346736         0.080092
 O         1.910251         1.477380        -0.167163
 C         3.203293         1.372941         0.244304
 C         3.354555        -0.171732         0.324098
 O         2.103354        -0.745259        -0.109786
 H         4.383722         1.772522         2.794433
 H         4.060655         0.113554         3.515222
 H         5.229528         0.325523         2.107299
 H         1.685932        -0.619405         2.270297
 H         1.182000         0.998334         2.569569
 H        -0.220811         0.467379        -1.004601
 H        -0.592182        -0.467170         0.614686
 H        -0.509947         1.283272         0.374856
 H         3.858544         2.019628        -0.254692
 H         4.305566        -0.670139         0.068954
