19
Iteration:  3875charge 0 multiplicity 1
 C         4.372806         0.782001         2.572769
 C         3.142160         0.613953         1.665422
 C         1.601875         0.475296         1.861520
 C         1.368551         0.332842         0.393705
 C        -0.096883         0.265112         0.162178
 O         1.956788         1.507285        -0.322667
 C         3.217889         1.320727         0.334626
 C         3.411779        -0.251584         0.346668
 O         2.127244        -0.763102        -0.077799
 H         4.308361         1.807471         3.031221
 H         4.526916        -0.050735         3.272301
 H         5.239658         0.890851         1.895557
 H         1.208800        -0.464798         2.300075
 H         1.300552         1.381424         2.368249
 H        -0.396832         0.109791        -0.968886
 H        -0.460358        -0.610537         0.836256
 H        -0.535893         1.254205         0.458982
 H         3.851218         2.024645        -0.144838
 H         4.315306        -0.741085        -0.119447
