19
Iteration:  1343
 C         4.379045         0.373442         2.607259
 C         3.318376         0.320522         1.551463
 C         1.868982        -0.020467         1.776093
 C         1.266073         0.384256         0.443839
 C        -0.185551         0.064544         0.067687
 O         1.751978         1.690332         0.255784
 C         3.157518         1.553484         0.601877
 C         3.462589         0.123071         0.045529
 O         2.111379        -0.266150        -0.501499
 H         4.083135         0.876973         3.487509
 H         4.816799        -0.576962         3.013679
 H         5.146675         1.101259         2.125639
 H         1.795387        -1.032621         2.126556
 H         1.354547         0.588699         2.509574
 H        -0.228779        -0.247550        -0.991901
 H        -0.652023        -0.671057         0.670859
 H        -0.626930         1.086780         0.400174
 H         3.793564         2.451217         0.497647
 H         4.412805         0.042531        -0.469383
