19
Iteration:  1971charge 0 multiplicity 1
 C         4.372116         0.713460         2.643013
 C         3.241494         0.456248         1.586592
 C         1.821297         0.303754         1.927983
 C         1.290288         0.476188         0.453873
 C        -0.194769         0.113130         0.100918
 O         1.943534         1.644082        -0.095730
 C         3.278235         1.345697         0.349983
 C         3.356524        -0.153419         0.202195
 O         2.026064        -0.619416        -0.269007
 H         4.319256         1.800461         3.136554
 H         4.153148         0.048378         3.595222
 H         5.404515         0.510914         2.298831
 H         1.538922        -0.685689         2.290040
 H         1.542875         1.193961         2.495392
 H        -0.956268         0.675491         0.662433
 H        -0.463631         0.418442        -1.011615
 H        -0.354784        -1.005683        -0.038843
 H         3.998522         2.142471         0.076281
 H         4.239842        -0.574010        -0.280059
