19
Iteration:  1406charge 0 multiplicity 1
 C         4.512591         0.343331         2.639244
 C         3.354074         0.449256         1.572602
 C         1.829171        -0.085472         1.932795
 C         1.246800         0.317573         0.487942
 C        -0.172587         0.229458        -0.028145
 O         1.648852         1.724450         0.194289
 C         3.070828         1.568564         0.490978
 C         3.479552         0.185437         0.066747
 O         2.210952        -0.451957        -0.467653
 H         4.308995         1.056610         3.397217
 H         4.291982        -0.623260         3.078783
 H         5.513983         0.334546         2.160242
 H         1.835520        -1.125401         2.272170
 H         1.376744         0.617098         2.676934
 H        -0.661806         1.213583        -0.152250
 H        -0.259115        -0.429917        -0.818494
 H        -0.934893        -0.169459         0.662260
 H         3.519647         2.605845         0.350570
 H         4.324254         0.053464        -0.633446
