19
Iteration:  2698
 C         4.277122         0.752939         2.633200
 C         3.288466         0.628490         1.598713
 C         1.803462         0.676907         1.926121
 C         1.297503         0.425982         0.464323
 C        -0.096871         0.090681         0.033377
 O         1.966352         1.510854        -0.263007
 C         3.264746         1.235189         0.159032
 C         3.319952        -0.317880         0.321845
 O         2.024278        -0.684447        -0.014254
 H         4.220144         1.774207         3.144983
 H         4.001664         0.059522         3.463070
 H         5.348923         0.530314         2.391373
 H         1.447281        -0.023928         2.687245
 H         1.570085         1.691411         2.256723
 H        -0.529626        -0.739364         0.680901
 H        -0.651246         0.948970         0.338216
 H        -0.133968        -0.025652        -1.110605
 H         4.011317         1.734478        -0.516492
 H         3.932732        -1.105282         0.024907
