19
Iteration:  2849
 C         4.361877         0.720991         2.668660
 C         3.305696         0.674259         1.579152
 C         1.718100         0.614883         1.946939
 C         1.297083         0.270505         0.336482
 C        -0.294068         0.299809         0.071263
 O         1.950909         1.447170        -0.374576
 C         3.246930         1.305376         0.142779
 C         3.425743        -0.247665         0.353859
 O         2.116045        -0.774201         0.098046
 H         4.791889         1.677376         3.100376
 H         4.165502         0.179861         3.582014
 H         5.338680         0.230627         2.447242
 H         1.382567        -0.279698         2.491630
 H         1.060963         1.444185         2.192799
 H        -0.653962        -0.688821        -0.291883
 H        -0.792008         0.584868         0.955632
 H        -0.626877         1.086267        -0.690357
 H         4.058001         2.046034        -0.070160
 H         4.389459        -0.738401         0.078010
