19
Iteration:  1687charge 0 multiplicity 1
 C         4.382115         0.569339         2.540489
 C         3.263860         0.494733         1.569102
 C         1.729650         0.085666         1.879785
 C         1.344152         0.385965         0.446617
 C        -0.154093         0.216155         0.078683
 O         1.869946         1.668893         0.115963
 C         3.160615         1.489547         0.469427
 C         3.385029        -0.087628         0.123420
 O         2.145634        -0.532062        -0.353119
 H         3.896344         1.097175         3.444722
 H         4.692360        -0.407322         2.940877
 H         5.124197         1.100726         2.066295
 H         1.521801        -0.921278         2.204726
 H         1.248446         0.822560         2.512079
 H        -0.748515         1.057140         0.531380
 H        -0.145882         0.212126        -0.979713
 H        -0.331136        -0.836449         0.404345
 H         3.808537         2.349524         0.276093
 H         4.268138        -0.523009        -0.330467
