19
Iteration:   380charge 0 multiplicity 1
 C         4.440329        -0.014092         2.372061
 C         3.354487         0.263828         1.356687
 C         2.092339        -0.545967         1.424228
 C         1.328862         0.320127         0.406771
 C        -0.005282         0.130475        -0.008464
 O         1.439163         1.634647         0.984899
 C         2.871805         1.641926         1.027916
 C         3.347969         0.726389        -0.019424
 O         2.253838         0.152587        -0.729461
 H         4.189811         0.357563         3.361573
 H         4.706319        -1.049793         2.373287
 H         5.459529         0.419568         2.107800
 H         2.237214        -1.674900         1.299254
 H         1.577444        -0.495222         2.426827
 H        -0.718832         0.179518         0.827716
 H        -0.293237         0.822279        -0.824351
 H        -0.121340        -0.906275        -0.374991
 H         3.403495         2.542189         1.225526
 H         4.210911         0.952296        -0.644424
