19
Iteration:    70charge 0 multiplicity 1
 C         4.579149        -0.187093         2.279664
 C         3.428188         0.157067         1.362870
 C         2.174126        -0.612776         1.358553
 C         1.327894         0.239584         0.425312
 C        -0.028226        -0.020862        -0.158707
 O         1.431664         1.546850         1.128110
 C         2.835328         1.613349         1.246343
 C         3.228615         1.043346        -0.046866
 O         2.150681         0.510876        -0.745445
 H         4.191645        -0.171261         3.289843
 H         5.053517        -1.258802         2.029251
 H         5.393910         0.513832         2.201519
 H         2.262035        -1.714108         1.043447
 H         1.720121        -0.615896         2.378654
 H         0.238280        -0.325042        -1.154694
 H        -0.634801        -0.795731         0.306296
 H        -0.629241         0.864136        -0.275582
 H         3.304333         2.551718         1.661306
 H         4.142834         1.261256        -0.617859
