19
Iteration:   991
 C         4.432502         0.089807         2.428152
 C         3.280040         0.361674         1.509368
 C         1.962221        -0.185452         1.791165
 C         1.290727         0.308533         0.468760
 C        -0.097609         0.126928         0.059492
 O         1.568197         1.730582         0.421334
 C         2.933899         1.748597         0.694754
 C         3.449589         0.358688         0.062452
 O         2.310211        -0.196951        -0.565444
 H         4.146789         0.186480         3.393903
 H         4.610659        -1.012344         2.424508
 H         5.378171         0.639647         2.156089
 H         1.987482        -1.277367         1.762071
 H         1.340962         0.078317         2.620983
 H        -0.684279         0.971269         0.333499
 H        -0.105998         0.064202        -1.029184
 H        -0.571987        -0.735203         0.515981
 H         3.413210         2.618838         1.169846
 H         4.327913         0.229853        -0.641598
