19
Iteration:  1959charge 0 multiplicity 1
 C         4.304260         0.634098         2.658444
 C         3.296091         0.541629         1.604677
 C         1.814090         0.338191         1.912264
 C         1.262788         0.374108         0.400400
 C        -0.185287         0.179410         0.071220
 O         1.885410         1.609609        -0.063856
 C         3.218047         1.348466         0.303945
 C         3.420682        -0.141375         0.140232
 O         2.102068        -0.554665        -0.209268
 H         4.492204         1.765654         2.894487
 H         4.169508        -0.093183         3.593364
 H         5.279825         0.293248         2.171127
 H         1.617619        -0.624679         2.419408
 H         1.355387         1.045492         2.625711
 H        -0.862748         0.785969         0.676727
 H        -0.261670         0.263156        -1.076711
 H        -0.330194        -0.833491         0.576184
 H         3.908333         2.125255         0.058914
 H         4.181590        -0.915324        -0.103211
