19
Iteration:  1713
 C         4.379341         0.486400         2.651323
 C         3.311717         0.516327         1.613774
 C         1.839734         0.112377         1.932240
 C         1.321025         0.333926         0.389474
 C        -0.223780         0.274018         0.013511
 O         1.690942         1.657152         0.093773
 C         3.140322         1.436274         0.314532
 C         3.446419         0.038273         0.103892
 O         2.215507        -0.587437        -0.277892
 H         4.283029         1.184198         3.458684
 H         4.385345        -0.465339         3.190070
 H         5.253485         0.659218         1.941232
 H         1.691406        -0.815914         2.558334
 H         1.522882         1.043870         2.471472
 H        -0.628239         0.576886         0.952709
 H        -0.259785         1.062238        -0.779004
 H        -0.543949        -0.696928        -0.332891
 H         3.772484         2.313113         0.165775
 H         4.357191        -0.366963        -0.340044
