19
Iteration:  4450charge 0 multiplicity 1
 C         4.293669         0.668185         2.630189
 C         3.304772         0.595074         1.547849
 C         1.873047         0.489225         1.916257
 C         1.314220         0.357437         0.427610
 C        -0.079431         0.169338         0.029444
 O         1.803324         1.576023        -0.184464
 C         3.173100         1.366359         0.215283
 C         3.376914        -0.204756         0.258569
 O         2.096440        -0.682966         0.000169
 H         4.608125         1.707500         2.876259
 H         3.889126         0.125081         3.516304
 H         5.237822         0.149062         2.348958
 H         1.689156        -0.380667         2.511832
 H         1.486670         1.380722         2.339262
 H        -0.134325        -0.355303        -0.880170
 H        -0.652476        -0.437593         0.727891
 H        -0.700550         1.028464         0.044690
 H         3.825516         2.074149        -0.293352
 H         4.196223        -0.891667         0.020529
