19
Iteration:  4795charge 0 multiplicity 1
 C         4.369539         0.654660         2.617974
 C         3.251238         0.630634         1.632465
 C         1.705646         0.584775         1.900674
 C         1.297304         0.373285         0.387757
 C        -0.190742         0.044792         0.143052
 O         1.952564         1.556405        -0.256077
 C         3.263289         1.318300         0.223473
 C         3.377904        -0.224919         0.341446
 O         2.112867        -0.627624        -0.097241
 H         4.208475         1.464899         3.375513
 H         4.573181        -0.311128         3.135269
 H         5.303258         0.975515         2.082548
 H         1.214218        -0.219604         2.468388
 H         1.271110         1.550420         2.150422
 H        -0.555226        -0.027179        -0.850053
 H        -0.559053        -0.883839         0.676931
 H        -0.726162         0.945384         0.462546
 H         4.078348         1.896120        -0.322738
 H         4.177524        -0.850864         0.075270
