19
Iteration:   246charge 0 multiplicity 1
 C         4.467715         0.020966         2.185491
 C         3.229440         0.199052         1.497960
 C         2.074525        -0.759194         1.375534
 C         1.338014         0.316546         0.427611
 C        -0.126898         0.063233         0.074168
 O         1.435847         1.610240         0.876781
 C         2.825699         1.620747         1.103487
 C         3.481778         0.768387         0.053491
 O         2.369792         0.436695        -0.718443
 H         4.417875        -0.022879         3.222944
 H         4.840331        -1.004154         1.938104
 H         5.098806         0.835270         1.876330
 H         2.246117        -1.738612         0.931408
 H         1.530746        -0.786519         2.410189
 H        -0.141649        -0.834316        -0.565767
 H        -0.686334        -0.132749         0.974525
 H        -0.468198         0.893459        -0.533112
 H         3.226925         2.435593         1.723547
 H         4.469811         0.870618        -0.540977
