19
Iteration:  2926
 C         4.322292         0.867960         2.625987
 C         3.261918         0.584715         1.610416
 C         1.745928         0.578371         1.981968
 C         1.228990         0.469359         0.364843
 C        -0.084921         0.262146         0.075788
 O         1.947964         1.492391        -0.266093
 C         3.248097         1.186098         0.207074
 C         3.357689        -0.333533         0.382864
 O         2.086913        -0.805577        -0.104166
 H         4.001371         1.608735         3.470267
 H         4.767716        -0.054161         3.090950
 H         5.236402         1.264418         2.067615
 H         1.304885        -0.345385         2.388716
 H         1.453173         1.572161         2.391089
 H        -0.491225        -0.622994         0.631673
 H        -0.650233         1.129409         0.439136
 H        -0.298219         0.200296        -1.037535
 H         3.960514         1.914295         0.036471
 H         4.116994        -1.069703         0.019612
