19
Iteration:  1151charge 0 multiplicity 1
 C         4.534966         0.218548         2.540792
 C         3.238822         0.389030         1.602414
 C         1.833056        -0.118246         1.790239
 C         1.280063         0.418717         0.402631
 C        -0.142598        -0.029461         0.031142
 O         1.674803         1.832377         0.355581
 C         3.123411         1.623456         0.645486
 C         3.385847         0.225830         0.026111
 O         2.186463        -0.214131        -0.551516
 H         4.197143         0.350925         3.614300
 H         4.791103        -0.820062         2.588361
 H         5.434322         0.675048         2.307642
 H         1.731715        -1.245330         1.992108
 H         1.339304         0.527682         2.582884
 H        -0.564635         0.319695        -0.931947
 H        -0.100248        -1.149214        -0.035452
 H        -0.711795         0.318965         0.953061
 H         3.682276         2.536431         0.606042
 H         4.289666        -0.129555        -0.442261
