19
Iteration:  2912charge 0 multiplicity 1
 C         4.435814         0.851386         2.691918
 C         3.241354         0.516979         1.631683
 C         1.745888         0.619437         1.854505
 C         1.314119         0.462625         0.435461
 C        -0.251121         0.199926         0.031095
 O         1.957302         1.534956        -0.255419
 C         3.310469         1.207598         0.230469
 C         3.319979        -0.334486         0.301195
 O         2.051800        -0.777744        -0.039856
 H         4.001350         1.684067         3.284680
 H         4.563740        -0.001576         3.339467
 H         5.339633         1.272339         2.191011
 H         1.377287        -0.109259         2.630102
 H         1.393213         1.616776         2.286667
 H        -0.376454        -0.889050         0.301499
 H        -1.030620         0.763916         0.552442
 H        -0.321522         0.198203        -1.120469
 H         4.125020         1.850830        -0.309475
 H         4.303794        -0.814491         0.017072
