19
Iteration:  1584charge 0 multiplicity 1
 C         4.403143         0.398207         2.582590
 C         3.230355         0.506177         1.632996
 C         1.752011         0.131555         1.837324
 C         1.288744         0.334020         0.426222
 C        -0.152181         0.068013         0.076671
 O         1.820497         1.788988         0.114708
 C         3.157024         1.530956         0.498169
 C         3.419040         0.033227         0.115689
 O         2.178618        -0.471061        -0.375331
 H         4.436607         1.297904         3.122688
 H         4.349311        -0.612648         3.067181
 H         5.397517         0.252926         1.964062
 H         1.683916        -0.891898         2.296243
 H         1.226980         0.825973         2.542851
 H        -0.164040        -0.287614        -0.968298
 H        -0.576668        -0.785892         0.745018
 H        -0.844065         0.949908         0.231119
 H         3.959174         2.279590         0.226285
 H         4.284089        -0.144961        -0.524747
