19
Iteration:  1929charge 0 multiplicity 1
 C         4.337022         0.458755         2.655790
 C         3.246065         0.620306         1.562190
 C         1.836105         0.360339         1.900174
 C         1.299985         0.319405         0.437385
 C        -0.169710         0.295598         0.058415
 O         1.815432         1.597720        -0.070251
 C         3.104460         1.468831         0.309861
 C         3.450429         0.039068         0.222312
 O         2.195173        -0.788918        -0.186035
 H         4.657351         1.501321         2.982994
 H         4.069246        -0.353948         3.292894
 H         5.147141         0.170985         2.055539
 H         1.610102        -0.579472         2.409887
 H         1.425963         1.265634         2.344743
 H        -0.494300         1.334040        -0.100021
 H        -0.312243        -0.552310        -0.749352
 H        -0.692083        -0.241914         0.894993
 H         3.768232         2.254254        -0.088117
 H         4.316929        -0.508522        -0.129590
