19
Iteration:  1771charge 0 multiplicity 1
 C         4.387586         0.474092         2.588828
 C         3.271811         0.459834         1.592195
 C         1.657063         0.337527         1.863417
 C         1.276530         0.367167         0.421533
 C        -0.094613        -0.011216         0.104543
 O         1.843026         1.777499         0.095819
 C         3.256439         1.420213         0.371190
 C         3.382158        -0.011574         0.140219
 O         2.126273        -0.521372        -0.333230
 H         4.480208         1.397101         3.042040
 H         4.410634        -0.333115         3.335048
 H         5.428765         0.365898         2.203236
 H         1.436503        -0.644018         2.296966
 H         1.243272         1.111594         2.498987
 H        -0.563038        -0.880584         0.604831
 H        -0.697470         0.821634         0.388380
 H        -0.342586        -0.146166        -0.915528
 H         4.019122         2.180276         0.097251
 H         4.347910        -0.412143        -0.171807
