19
Iteration:  2525charge 0 multiplicity 1
 C         4.356745         0.737395         2.616282
 C         3.249420         0.682360         1.571974
 C         1.679123         0.615324         1.855219
 C         1.249048         0.258709         0.473777
 C        -0.225474         0.259839         0.089281
 O         2.012724         1.476957        -0.319570
 C         3.280291         1.256828         0.213624
 C         3.374408        -0.268082         0.301601
 O         2.092314        -0.719101         0.018772
 H         4.303002         1.660621         3.203125
 H         4.223729        -0.084028         3.422891
 H         5.417571         0.672931         2.410611
 H         1.643170        -0.138253         2.690175
 H         1.374392         1.575767         2.341611
 H        -0.866473        -0.559397         0.553723
 H        -0.444537         1.306189         0.287422
 H        -0.186637         0.057295        -1.009410
 H         3.953342         1.861532        -0.298192
 H         4.257522        -1.016437         0.308957
