19
Iteration:  4242charge 0 multiplicity 1
 C         4.316874         0.903515         2.707657
 C         3.333321         0.447047         1.616629
 C         1.794381         0.387077         1.906395
 C         1.282862         0.434309         0.471554
 C        -0.168256         0.258762        -0.011526
 O         1.881323         1.555573        -0.135000
 C         3.238148         1.229379         0.103285
 C         3.371760        -0.241771         0.192927
 O         2.078118        -0.732680        -0.000506
 H         4.117482         1.935926         2.836003
 H         4.298519         0.290610         3.574285
 H         5.323283         0.908076         2.355863
 H         1.461590        -0.411264         2.573518
 H         1.365631         1.253545         2.374629
 H        -0.093217        -0.131635        -0.983461
 H        -0.633525        -0.344873         0.828326
 H        -0.622588         1.233640        -0.000093
 H         3.995163         1.747967        -0.392485
 H         4.324782        -0.699869        -0.272666
