19
Iteration:  4751
 C         4.281794         0.706269         2.693221
 C         3.279998         0.630489         1.477294
 C         1.774713         0.476012         1.952786
 C         1.266212         0.250598         0.479749
 C        -0.139705         0.312752         0.036757
 O         1.802285         1.480914        -0.248218
 C         3.282251         1.345675         0.130461
 C         3.443249        -0.106324         0.223791
 O         2.140867        -0.769613         0.121578
 H         3.945650         1.294372         3.586328
 H         4.442140        -0.351927         2.990878
 H         5.307051         1.059540         2.378776
 H         1.799828        -0.500804         2.434359
 H         1.455606         1.356478         2.470966
 H        -0.140189         0.723633        -0.937194
 H        -0.573740        -0.760069        -0.087307
 H        -0.748483         0.987668         0.639642
 H         3.900332         2.109729        -0.492020
 H         4.176056        -0.714444        -0.316313
