19
Iteration:  3569charge 0 multiplicity 1
 C         4.263598         0.903433         2.505588
 C         3.179084         0.514954         1.651588
 C         1.704846         0.479427         1.922398
 C         1.307018         0.343177         0.404797
 C        -0.184042         0.313923         0.089889
 O         1.996053         1.471981        -0.262750
 C         3.311850         1.236294         0.288360
 C         3.396526        -0.265533         0.338853
 O         2.136078        -0.741894        -0.042517
 H         4.454897         1.995206         2.700904
 H         4.269262         0.312132         3.465905
 H         5.222073         0.535477         2.057174
 H         1.414337        -0.413238         2.513655
 H         1.264708         1.443006         2.222311
 H        -0.379538         0.336361        -1.012320
 H        -0.634395        -0.586064         0.531057
 H        -0.738992         1.154104         0.621628
 H         3.927914         2.072427        -0.031715
 H         4.262232        -0.873419        -0.036657
