19
Iteration:  3989
 C         4.376078         0.623391         2.549937
 C         3.172958         0.632193         1.638956
 C         1.700062         0.590593         1.838728
 C         1.297561         0.438326         0.346182
 C        -0.131241         0.211859         0.181902
 O         1.939411         1.416201        -0.398072
 C         3.176509         1.418511         0.300681
 C         3.376816        -0.191877         0.442215
 O         2.191839        -0.784464        -0.038007
 H         4.238788         1.336821         3.329641
 H         4.366948        -0.347631         3.059646
 H         5.391278         0.793927         2.202332
 H         1.261184        -0.242933         2.381676
 H         1.312879         1.545075         2.229263
 H        -0.469798         0.098893        -0.839974
 H        -0.496685        -0.635372         0.795279
 H        -0.731477         1.122742         0.505767
 H         3.954128         2.168854         0.211005
 H         4.370030        -0.654521         0.076357
