19
Iteration:  4725
 C         4.355181         0.845985         2.618368
 C         3.210423         0.584899         1.584940
 C         1.802318         0.488084         1.949720
 C         1.295343         0.378619         0.338867
 C        -0.161631         0.171859         0.098720
 O         1.908558         1.556238        -0.143392
 C         3.268848         1.234022         0.265456
 C         3.346227        -0.269044         0.311555
 O         2.105543        -0.709322        -0.134040
 H         4.055106         1.680666         3.312994
 H         4.479234        -0.075828         3.256588
 H         5.350001         1.120364         2.189256
 H         1.622113        -0.445430         2.479268
 H         1.435373         1.419531         2.413418
 H        -0.493664         0.590856        -0.972760
 H        -0.413118        -0.895683         0.055394
 H        -0.764238         0.881202         0.726427
 H         3.863614         1.814735        -0.348590
 H         4.159219        -0.881533        -0.118526
