19
Iteration:  3158charge 0 multiplicity 1
 C         4.343165         0.725395         2.666823
 C         3.245586         0.655643         1.557063
 C         1.779221         0.549536         1.966622
 C         1.310192         0.351442         0.446176
 C        -0.205971         0.265401         0.049948
 O         1.923672         1.407890        -0.324338
 C         3.272651         1.338113         0.157548
 C         3.360950        -0.247263         0.341640
 O         2.090418        -0.725936        -0.003823
 H         4.251849         1.532578         3.417888
 H         4.402443        -0.280979         3.195417
 H         5.310777         0.852797         2.124169
 H         1.475437        -0.332953         2.513462
 H         1.446949         1.438484         2.458531
 H        -0.494266        -0.740889        -0.247788
 H        -0.904485         0.749979         0.755770
 H        -0.215293         0.878861        -0.898564
 H         3.907578         2.156426         0.003112
 H         4.242905        -0.855942         0.259894
