19
Iteration:  3164
 C         4.329943         0.712514         2.646331
 C         3.224921         0.648928         1.586482
 C         1.861456         0.548640         1.972552
 C         1.246895         0.380155         0.474050
 C        -0.188406         0.274570        -0.004172
 O         1.897310         1.375009        -0.312105
 C         3.250031         1.337764         0.100128
 C         3.369004        -0.220733         0.360547
 O         2.099577        -0.717546         0.009525
 H         4.258966         1.453494         3.457324
 H         4.242653        -0.168954         3.247344
 H         5.345826         0.720441         2.267522
 H         1.474855        -0.413413         2.419570
 H         1.482864         1.545785         2.381202
 H        -0.374091        -0.798753        -0.221036
 H        -0.791734         0.654111         0.865565
 H        -0.065863         0.946630        -0.827734
 H         4.023279         2.187578         0.066823
 H         4.242606        -0.858985         0.113905
