19
Iteration:   295charge 0 multiplicity 1
 C         4.595757        -0.165130         2.308869
 C         3.410321         0.249289         1.424406
 C         2.051185        -0.509095         1.619044
 C         1.292259         0.291386         0.495456
 C        -0.070708        -0.012454        -0.216559
 O         1.413027         1.617435         1.002766
 C         2.846948         1.693244         1.019335
 C         3.376521         0.771191        -0.074018
 O         2.204345         0.359986        -0.709416
 H         4.365223        -0.475650         3.394472
 H         5.050922        -1.075703         1.970727
 H         5.251127         0.727020         2.248212
 H         2.351632        -1.537099         1.257920
 H         1.629195        -0.471603         2.604617
 H        -0.074684         0.429830        -1.226227
 H        -0.175238        -1.118906        -0.242421
 H        -0.878616         0.426454         0.403651
 H         3.313390         2.595677         1.311146
 H         4.163612         1.062205        -0.745349
