19
Iteration:   710charge 0 multiplicity 1
 C         4.424303         0.149958         2.538550
 C         3.308595         0.281252         1.398078
 C         2.038834        -0.401668         1.649899
 C         1.301318         0.260954         0.457844
 C        -0.073877         0.124923        -0.038682
 O         1.604811         1.719234         0.755197
 C         3.007565         1.620819         0.858619
 C         3.375584         0.434661        -0.080543
 O         2.127980         0.067627        -0.731940
 H         3.898771         0.723144         3.432168
 H         4.628036        -0.837235         2.866547
 H         5.357840         0.646238         2.250167
 H         2.094703        -1.492255         1.414471
 H         1.767478        -0.354917         2.709213
 H         0.061802         0.391574        -1.060310
 H        -0.249411        -0.924594         0.187090
 H        -0.774493         0.663732         0.590053
 H         3.489415         2.551381         1.101698
 H         4.319768         0.403175        -0.696475
