19
Iteration:  1303
 C         4.345526         0.162806         2.509402
 C         3.270820         0.525306         1.475040
 C         1.839171        -0.034419         1.784152
 C         1.318956         0.306143         0.487969
 C        -0.119317         0.167843         0.046921
 O         1.674161         1.708358         0.324815
 C         3.068414         1.640832         0.480986
 C         3.475504         0.288696         0.086333
 O         2.243152        -0.441673        -0.367240
 H         4.275238         0.688567         3.560208
 H         4.562559        -0.929162         2.640391
 H         5.302105         0.685670         2.369968
 H         1.654540        -1.137787         1.861659
 H         1.498451         0.556167         2.650242
 H        -0.204865        -0.917609        -0.160808
 H        -0.863108         0.409221         0.879062
 H        -0.379504         0.895844        -0.760414
 H         3.603484         2.606617         0.288931
 H         4.399632         0.183179        -0.529160
