19
Iteration:  2050
 C         4.358953         0.577189         2.604706
 C         3.248834         0.594730         1.570770
 C         1.748917         0.432709         1.888516
 C         1.288780         0.379582         0.444595
 C        -0.208728         0.237020         0.100248
 O         1.892349         1.560722        -0.163001
 C         3.280249         1.354076         0.184215
 C         3.383785        -0.123374         0.311592
 O         2.146260        -0.687990        -0.071366
 H         3.980731         1.236071         3.476377
 H         4.573670        -0.466535         2.858928
 H         5.293244         1.056728         2.284611
 H         1.598625        -0.538427         2.352013
 H         1.346005         1.270840         2.441158
 H        -0.558847        -0.835686         0.224550
 H        -0.905460         0.898183         0.654654
 H        -0.331193         0.472790        -0.959549
 H         3.859427         2.169960        -0.176622
 H         4.238136        -0.673451        -0.095724
