19
Iteration:  2800charge 0 multiplicity 1
 C         4.269483         0.944404         2.592776
 C         3.222603         0.536083         1.548184
 C         1.777501         0.526191         1.935277
 C         1.285297         0.433993         0.493282
 C        -0.138751         0.208085         0.012507
 O         2.010925         1.577457        -0.255708
 C         3.372479         1.166369         0.180549
 C         3.311803        -0.407594         0.276442
 O         1.986682        -0.738224         0.035197
 H         4.151706         1.909568         3.072131
 H         4.341820         0.269218         3.495953
 H         5.327347         1.063328         2.346562
 H         1.420389        -0.299897         2.600274
 H         1.652347         1.493744         2.491426
 H        -0.244889        -0.770016        -0.451942
 H        -0.940732         0.338108         0.844863
 H        -0.340907         0.937111        -0.778423
 H         4.131252         1.780068        -0.212888
 H         4.251313        -1.069950         0.214490
