19
Iteration:   809
 C         4.462284        -0.017997         2.373422
 C         3.372936         0.423052         1.469968
 C         1.964923        -0.193913         1.758273
 C         1.293594         0.314372         0.488855
 C        -0.074477         0.021730        -0.109048
 O         1.535458         1.781825         0.627438
 C         2.927772         1.649230         0.815760
 C         3.438347         0.451768         0.021343
 O         2.224650        -0.116407        -0.577692
 H         4.213179        -0.052061         3.483934
 H         4.616669        -1.000975         2.087575
 H         5.279749         0.629759         2.251739
 H         1.793005        -1.249568         1.857445
 H         1.503468         0.378570         2.611417
 H        -0.713941        -0.367896         0.665113
 H        -0.479052         0.932523        -0.572905
 H         0.195314        -0.832281        -0.713050
 H         3.564744         2.527450         1.016340
 H         4.150748         0.619197        -0.728233
