19
Iteration:  2328
 C         4.332319         0.857765         2.582152
 C         3.184393         0.678888         1.637485
 C         1.733319         0.402291         1.866827
 C         1.309491         0.200194         0.459758
 C        -0.124323         0.387307         0.092744
 O         1.998604         1.569662        -0.205039
 C         3.206240         1.200964         0.161450
 C         3.394608        -0.222466         0.322689
 O         2.033382        -0.818373        -0.014603
 H         4.457323         1.873892         2.947356
 H         4.379717         0.267802         3.575511
 H         5.297203         0.622233         2.118232
 H         1.510424        -0.610929         2.305820
 H         1.274441         1.370731         2.196774
 H        -0.666995         0.355327         1.019602
 H        -0.205785         1.318105        -0.571189
 H        -0.357030        -0.336601        -0.692874
 H         4.050223         1.822263        -0.210668
 H         4.231414        -0.796330        -0.081893
