19
Iteration:  1794charge 0 multiplicity 1
 C         4.357699         0.531312         2.578949
 C         3.298817         0.480689         1.585051
 C         1.781766         0.267016         1.926358
 C         1.257603         0.403257         0.444868
 C        -0.158980         0.183855         0.086932
 O         1.837458         1.645231        -0.014288
 C         3.105112         1.434085         0.417075
 C         3.424736        -0.087023         0.169771
 O         2.182298        -0.545228        -0.321811
 H         4.361959         1.319396         3.273158
 H         4.388647        -0.444343         3.080082
 H         5.376294         0.602524         2.225112
 H         1.696886        -0.612100         2.525064
 H         1.420066         1.089307         2.530897
 H        -0.247404        -0.943270        -0.024458
 H        -0.899824         0.532048         0.742372
 H        -0.448022         0.513245        -0.914865
 H         3.828806         2.310935         0.295124
 H         4.321759        -0.539956        -0.300845
