19
Iteration:  1144charge 0 multiplicity 1
 C         4.496596         0.188889         2.552040
 C         3.291190         0.400513         1.534708
 C         1.867865        -0.004491         1.828116
 C         1.231112         0.395099         0.349372
 C        -0.147312        -0.034789         0.016752
 O         1.650455         1.812791         0.412929
 C         3.142323         1.618048         0.715994
 C         3.393324         0.209978         0.004125
 O         2.181666        -0.236355        -0.544488
 H         4.270110         0.459703         3.572139
 H         4.711637        -0.889870         2.378150
 H         5.457624         0.744109         2.287319
 H         1.874510        -1.081753         1.850312
 H         1.212644         0.313376         2.627274
 H        -0.357586         0.193072        -1.019187
 H        -0.101998        -1.114385         0.190872
 H        -0.841437         0.438427         0.669123
 H         3.731934         2.500540         0.482859
 H         4.337469        -0.055625        -0.376653
