19
Iteration:  3491charge 0 multiplicity 1
 C         4.295949         0.668626         2.701425
 C         3.296226         0.671772         1.550753
 C         1.890123         0.652088         1.813080
 C         1.305313         0.404716         0.463346
 C        -0.068610         0.256630        -0.089520
 O         1.797816         1.475830        -0.245511
 C         3.171752         1.291540         0.117643
 C         3.375050        -0.256390         0.276324
 O         2.093841        -0.825417         0.222748
 H         3.990324         1.366561         3.552283
 H         4.269551        -0.338152         3.252212
 H         5.363646         0.919159         2.481489
 H         1.556392        -0.268309         2.288126
 H         1.627258         1.640801         2.266624
 H        -0.067260         0.241365        -1.174674
 H        -0.605847        -0.640646         0.466575
 H        -0.761733         1.006104         0.394697
 H         3.836471         1.954981        -0.414519
 H         4.251816        -0.587154        -0.174966
