19
Iteration:  2940charge 0 multiplicity 1
 C         4.260097         0.845103         2.521749
 C         3.151135         0.612559         1.608147
 C         1.735343         0.476882         1.878559
 C         1.372535         0.317757         0.450618
 C        -0.150460         0.350491         0.084774
 O         1.972710         1.457494        -0.247498
 C         3.296693         1.229151         0.196083
 C         3.373636        -0.283465         0.366656
 O         2.091621        -0.733676        -0.010818
 H         3.939847         1.478409         3.355671
 H         4.622529        -0.111511         3.012880
 H         5.126045         1.392778         2.109099
 H         1.586606        -0.383353         2.535995
 H         1.293778         1.318148         2.366878
 H        -0.697080        -0.337951         0.696985
 H        -0.490011         1.408906         0.200477
 H        -0.282798         0.078859        -0.916202
 H         4.091418         1.850638        -0.242015
 H         4.232222        -0.891127         0.297605
