19
Iteration:  3915
 C         4.337805         0.977418         2.651534
 C         3.313357         0.550679         1.597830
 C         1.768801         0.438942         1.946808
 C         1.243261         0.336667         0.474658
 C        -0.134902         0.319001        -0.011051
 O         1.937162         1.486404        -0.114929
 C         3.191810         1.193177         0.166423
 C         3.393177        -0.270887         0.249147
 O         2.067467        -0.764832        -0.082986
 H         4.321479         2.048516         2.914216
 H         4.108482         0.423231         3.598379
 H         5.400979         0.813144         2.424542
 H         1.636047        -0.565839         2.434385
 H         1.204127         1.158668         2.557136
 H         0.002950         0.647097        -1.040943
 H        -0.564803        -0.606281         0.063803
 H        -0.808770         1.038657         0.419648
 H         4.003878         1.786622        -0.250296
 H         4.180135        -0.862881        -0.290024
