19
Iteration:  4154
 C         4.268663         0.717756         2.674659
 C         3.278845         0.616031         1.518890
 C         1.869782         0.691995         1.977919
 C         1.237771         0.342774         0.570727
 C        -0.097551         0.011575        -0.019626
 O         1.950641         1.574472        -0.151019
 C         3.253479         1.196945         0.040067
 C         3.344236        -0.215538         0.267840
 O         2.023381        -0.625786        -0.005003
 H         4.035650         1.469438         3.385336
 H         4.320669        -0.251392         3.150686
 H         5.283438         0.859283         2.381289
 H         1.606726        -0.161626         2.617250
 H         1.451323         1.628428         2.282382
 H        -0.121078         0.281859        -1.091833
 H        -0.359118        -1.011522         0.117902
 H        -0.894156         0.650763         0.371582
 H         4.026873         1.853798        -0.466538
 H         4.120546        -0.857088        -0.047497
