19
Iteration:  4343
 C         4.312994         0.727555         2.670654
 C         3.280812         0.704129         1.528693
 C         1.772068         0.513268         1.943427
 C         1.284788         0.222243         0.494954
 C        -0.141798         0.244589         0.039296
 O         1.886935         1.609972        -0.161786
 C         3.245222         1.232655         0.059924
 C         3.372512        -0.226392         0.286602
 O         2.109203        -0.745853        -0.010911
 H         3.921462         1.352188         3.454809
 H         4.567339        -0.226783         3.120517
 H         5.201513         1.144388         2.236038
 H         1.675283        -0.285122         2.716203
 H         1.336978         1.539562         2.221657
 H        -0.179693         0.639280        -1.008074
 H        -0.262097        -0.857196        -0.023714
 H        -0.859787         0.818630         0.661011
 H         3.941176         1.953907        -0.468937
 H         4.118775        -0.947906         0.138270
