19
Iteration:   938
 C         4.416588         0.143945         2.380394
 C         3.268170         0.260695         1.519385
 C         1.907719        -0.246573         1.767695
 C         1.275301         0.433278         0.472244
 C        -0.055722         0.007963        -0.037974
 O         1.629142         1.758530         0.546314
 C         3.004225         1.641067         0.796117
 C         3.434366         0.387440         0.011804
 O         2.202400        -0.060171        -0.548396
 H         4.198396         0.486611         3.384478
 H         4.813630        -0.904358         2.392452
 H         5.307547         0.691766         1.933054
 H         1.941345        -1.328165         1.855513
 H         1.335952         0.178156         2.621449
 H        -0.179146         0.529471        -0.979810
 H        -0.000564        -1.099811        -0.164972
 H        -0.899271         0.192504         0.633085
 H         3.672463         2.492320         0.537716
 H         4.405087         0.066747        -0.516345
