19
Iteration:  1953
 C         4.338936         0.580551         2.664081
 C         3.230466         0.572005         1.533451
 C         1.767025         0.357835         1.906272
 C         1.314714         0.332738         0.439295
 C        -0.144437         0.210749         0.075806
 O         1.821255         1.614662        -0.031678
 C         3.206183         1.353922         0.271643
 C         3.421240        -0.126632         0.166798
 O         2.175485        -0.571002        -0.183417
 H         4.511097         1.612735         2.906807
 H         4.050985        -0.029002         3.440531
 H         5.271723         0.246576         2.259308
 H         1.741849        -0.672065         2.303731
 H         1.218404         1.124763         2.468326
 H        -0.660772         1.080626         0.545269
 H        -0.389348         0.027657        -0.971108
 H        -0.455563        -0.698378         0.558257
 H         3.976441         2.109187        -0.030627
 H         4.096842        -0.890011        -0.162418
