19
Iteration:  3043
 C         4.355567         0.682197         2.667078
 C         3.288396         0.663889         1.625567
 C         1.682432         0.583273         1.930598
 C         1.328286         0.364558         0.413477
 C        -0.174809         0.217884         0.095938
 O         1.910618         1.435734        -0.310456
 C         3.250174         1.272252         0.251386
 C         3.379316        -0.179538         0.249491
 O         2.114088        -0.690633        -0.075234
 H         4.697956         1.664242         2.979432
 H         4.209919         0.116939         3.569477
 H         5.275285         0.220251         2.298909
 H         1.486120        -0.348371         2.536183
 H         1.298198         1.572421         2.334115
 H        -0.851989         0.112829         0.986065
 H        -0.629591         1.042373        -0.479272
 H        -0.323507        -0.682828        -0.590979
 H         3.910017         2.029079         0.057770
 H         4.140464        -0.928731         0.234790
