19
Iteration:  3169
 C         4.308295         0.686944         2.617083
 C         3.260222         0.643601         1.616719
 C         1.868033         0.561527         1.943154
 C         1.226720         0.413650         0.505493
 C        -0.121973         0.281254        -0.035516
 O         1.863822         1.401897        -0.290762
 C         3.214702         1.283972         0.091504
 C         3.403655        -0.167047         0.374026
 O         2.113333        -0.742888         0.035531
 H         4.175778         1.545306         3.313071
 H         4.040643        -0.202208         3.296408
 H         5.400905         0.579360         2.407155
 H         1.615190        -0.328693         2.493804
 H         1.464088         1.434978         2.380825
 H        -0.316163        -0.762895        -0.243365
 H        -0.778874         0.526397         0.826438
 H        -0.244200         1.017556        -0.914233
 H         3.895445         2.011418        -0.170925
 H         4.115546        -0.840725        -0.090808
