19
Iteration:  2751
 C         4.266280         0.763868         2.509840
 C         3.134757         0.620618         1.671588
 C         1.731406         0.621866         1.906178
 C         1.307513         0.297603         0.513327
 C        -0.098115         0.400786         0.094676
 O         1.972620         1.427347        -0.345501
 C         3.270736         1.235684         0.110891
 C         3.392097        -0.228146         0.431941
 O         2.129837        -0.849679         0.006409
 H         4.115258         1.519369         3.332048
 H         4.589362        -0.092668         3.076145
 H         5.150461         1.285473         2.104190
 H         1.469045        -0.221926         2.531767
 H         1.244083         1.477139         2.322602
 H        -0.427162        -0.622337        -0.184515
 H        -0.766735         0.748071         0.825344
 H        -0.199378         0.941403        -0.856533
 H         3.942554         2.074160        -0.227850
 H         4.108675        -0.936875         0.205182
