19
Iteration:  2040charge 0 multiplicity 1
 C         4.380920         0.634122         2.671596
 C         3.298438         0.581713         1.640161
 C         1.760983         0.342655         1.856474
 C         1.270400         0.350013         0.404936
 C        -0.144721         0.338941         0.069267
 O         1.825147         1.510483        -0.174403
 C         3.220049         1.388677         0.142846
 C         3.376135        -0.081417         0.290325
 O         2.119039        -0.736176        -0.069105
 H         4.350365         1.088679         3.705047
 H         4.676814        -0.336971         2.903044
 H         5.266702         1.014161         2.147070
 H         1.447737        -0.614401         2.281408
 H         1.382685         1.189431         2.414263
 H        -0.542212        -0.525833         0.680523
 H        -0.633478         1.218859         0.474989
 H        -0.325823         0.308356        -1.002107
 H         3.949815         2.152146         0.059826
 H         4.288714        -0.566261        -0.112578
