19
Iteration:  3375charge 0 multiplicity 1
 C         4.294076         0.736380         2.679588
 C         3.319750         0.660346         1.541411
 C         1.799894         0.532351         1.889484
 C         1.257119         0.327741         0.443509
 C        -0.209199         0.267387        -0.018469
 O         1.882876         1.531532        -0.218608
 C         3.274472         1.254953         0.125096
 C         3.402250        -0.240812         0.293575
 O         2.128113        -0.791365         0.120519
 H         4.296644         1.830881         2.952900
 H         3.940369         0.194380         3.541731
 H         5.298472         0.433542         2.358249
 H         1.542687        -0.372561         2.501508
 H         1.430262         1.511250         2.259538
 H        -0.177294         0.312939        -1.128712
 H        -0.801041        -0.534826         0.349405
 H        -0.666424         1.242209         0.379312
 H         3.956417         1.879968        -0.512420
 H         4.264944        -0.832770        -0.011573
