19
Iteration:  1254
 C         4.462711         0.327269         2.460820
 C         3.223564         0.302575         1.531399
 C         1.768827        -0.044002         1.792913
 C         1.336124         0.404451         0.362370
 C        -0.170564         0.022518         0.035132
 O         1.738785         1.792009         0.440242
 C         3.120921         1.558808         0.619866
 C         3.382266         0.186753         0.047798
 O         2.242016        -0.277147        -0.439545
 H         4.375454         0.961019         3.282413
 H         4.609096        -0.649960         2.966402
 H         5.460919         0.628026         2.025839
 H         1.595106        -1.087769         1.968974
 H         1.154902         0.613613         2.403953
 H        -0.618956        -0.457654         0.920159
 H        -0.785316         0.843856        -0.273587
 H        -0.146604        -0.567808        -0.844058
 H         3.706934         2.448864         0.334122
 H         4.385605        -0.069963        -0.424308
