19
Iteration:  4467
 C         4.390809         0.701153         2.623571
 C         3.243634         0.691342         1.571811
 C         1.688965         0.555626         1.884045
 C         1.278763         0.396920         0.447040
 C        -0.198304         0.022389         0.098280
 O         1.965311         1.632946        -0.068631
 C         3.312550         1.299404         0.167301
 C         3.365417        -0.192060         0.281974
 O         2.056294        -0.758204        -0.162447
 H         4.702919         1.711680         2.912250
 H         3.943690         0.208007         3.471128
 H         5.316905         0.192168         2.333562
 H         1.496351        -0.408437         2.478886
 H         1.335622         1.547746         2.308512
 H        -0.213447        -0.457088        -0.931369
 H        -0.538921        -0.789647         0.820230
 H        -0.811832         0.979524         0.154147
 H         4.151182         2.005610        -0.089283
 H         4.207643        -0.703198        -0.084994
