19
Iteration:  4853
 C         4.355842         0.853093         2.680160
 C         3.291011         0.665196         1.583468
 C         1.880293         0.373704         2.016872
 C         1.311284         0.283878         0.435026
 C        -0.191655         0.341216         0.004379
 O         1.851348         1.511228        -0.172196
 C         3.213740         1.308158         0.195435
 C         3.404638        -0.200095         0.252712
 O         2.036722        -0.842023        -0.097089
 H         4.531907         1.898511         2.939799
 H         4.127198         0.283559         3.586828
 H         5.266203         0.458791         2.259196
 H         1.603510        -0.571359         2.606620
 H         1.292606         1.268421         2.444905
 H        -0.084753        -0.115321        -1.030939
 H        -0.932356        -0.161108         0.514080
 H        -0.444255         1.433797        -0.018523
 H         3.895276         2.031886        -0.196496
 H         4.269972        -0.770144        -0.246380
