19
Iteration:  3545charge 0 multiplicity 1
 C         4.428444         0.839953         2.597765
 C         3.158728         0.521735         1.670324
 C         1.654863         0.562864         1.831739
 C         1.325261         0.470090         0.292277
 C        -0.131554         0.177309         0.144484
 O         1.959128         1.536433        -0.325075
 C         3.325190         1.278345         0.256677
 C         3.310121        -0.291742         0.431065
 O         2.094404        -0.763126        -0.047915
 H         4.436601         1.832237         3.057909
 H         4.274110         0.051184         3.367281
 H         5.421774         0.645767         2.184686
 H         1.147583        -0.323452         2.189828
 H         1.250572         1.497306         2.245509
 H        -0.679125         0.213268        -0.811765
 H        -0.166516        -0.913774         0.589817
 H        -0.688524         0.779326         0.949345
 H         4.029584         1.946218        -0.157616
 H         4.185714        -0.829920         0.219591
