19
Iteration:  4264
 C         4.213340         0.810982         2.567880
 C         3.256607         0.545798         1.510376
 C         1.852104         0.577560         1.944002
 C         1.304539         0.396510         0.479984
 C        -0.117011         0.054844         0.055035
 O         1.956613         1.624636        -0.112595
 C         3.341365         1.268696         0.215597
 C         3.327144        -0.328328         0.239563
 O         2.004947        -0.680726        -0.083822
 H         4.183440         1.877279         2.724312
 H         3.927630         0.257878         3.445140
 H         5.241047         0.600045         2.377370
 H         1.559709        -0.232348         2.626535
 H         1.536105         1.471562         2.441628
 H         0.023282        -0.179999        -0.962392
 H        -0.565063        -0.786161         0.687867
 H        -0.720671         0.943637         0.138107
 H         4.056212         2.035133         0.178696
 H         4.154548        -1.026509        -0.100556
