19
Iteration:  4171
 C         4.426501         0.704074         2.682368
 C         3.303981         0.643162         1.584710
 C         1.770591         0.599111         1.873645
 C         1.272025         0.399362         0.399507
 C        -0.244278         0.089863         0.032941
 O         1.901787         1.556352        -0.259244
 C         3.310343         1.318495         0.233530
 C         3.346127        -0.228261         0.326931
 O         2.048301        -0.761341        -0.018066
 H         4.059531         1.522106         3.383667
 H         4.652123        -0.306884         3.132699
 H         5.389641         1.162774         2.291730
 H         1.484757        -0.107235         2.664616
 H         1.476314         1.613463         2.247983
 H        -0.279049         0.082395        -1.076763
 H        -0.485047        -0.909319         0.460488
 H        -0.973702         0.788253         0.495962
 H         4.033470         2.002816        -0.193888
 H         4.134489        -0.904503        -0.009898
