19
Iteration:  4727
 C         4.363544         0.830505         2.631229
 C         3.201710         0.603945         1.585273
 C         1.822611         0.482098         1.945888
 C         1.307651         0.403465         0.354509
 C        -0.180704         0.184253         0.086555
 O         1.907247         1.540664        -0.146229
 C         3.241107         1.243620         0.248829
 C         3.352428        -0.262274         0.304397
 O         2.107646        -0.729200        -0.124414
 H         3.997000         1.649719         3.328160
 H         4.477640        -0.094947         3.272432
 H         5.385569         1.146087         2.240100
 H         1.655121        -0.447068         2.454632
 H         1.474988         1.401854         2.366985
 H        -0.396475         0.610753        -0.955962
 H        -0.465150        -0.927605         0.044884
 H        -0.792014         0.862472         0.729769
 H         3.847295         1.871404        -0.357086
 H         4.196746        -0.910983        -0.107778
