19
Iteration:  3003
 C         4.307945         0.768665         2.569740
 C         3.159292         0.618310         1.562261
 C         1.750862         0.600127         1.886973
 C         1.245692         0.401375         0.434217
 C        -0.129531         0.089640         0.066853
 O         2.018252         1.612100        -0.132606
 C         3.364395         1.215363         0.204586
 C         3.358655        -0.274925         0.234661
 O         2.058995        -0.724381        -0.009779
 H         4.227605         1.790235         3.095184
 H         3.977990         0.036574         3.326485
 H         5.347902         0.553231         2.228078
 H         1.517962        -0.279458         2.511926
 H         1.309478         1.545625         2.240952
 H        -0.797968         0.009956         0.947659
 H        -0.574466         1.004955        -0.435289
 H        -0.168626        -0.791193        -0.583371
 H         4.086409         1.938878        -0.136566
 H         4.072825        -1.058513         0.137282
