19
Iteration:  2088charge 0 multiplicity 1
 C         4.359065         0.560695         2.641012
 C         3.306315         0.505131         1.590199
 C         1.716765         0.577007         1.862659
 C         1.246641         0.447584         0.428216
 C        -0.163590         0.059872         0.097887
 O         1.932459         1.597188        -0.108105
 C         3.259151         1.334726         0.180132
 C         3.364328        -0.189346         0.282391
 O         2.093090        -0.618225        -0.120401
 H         4.183492         1.501803         3.076261
 H         4.458669        -0.156606         3.479796
 H         5.374319         0.742492         2.305508
 H         1.313327        -0.271279         2.492470
 H         1.343409         1.612161         2.135469
 H        -0.097042        -0.841703        -0.464614
 H        -0.867546        -0.191066         0.923509
 H        -0.600252         1.023549        -0.288539
 H         4.112842         1.953211        -0.227603
 H         4.224738        -0.606306        -0.200985
