19
Iteration:   304charge 0 multiplicity 1
 C         4.490307        -0.126888         2.199308
 C         3.336158         0.285942         1.432828
 C         2.087401        -0.544571         1.604074
 C         1.288577         0.319576         0.487795
 C        -0.096658        -0.045506        -0.159772
 O         1.512193         1.601581         0.945877
 C         2.920962         1.665447         1.063868
 C         3.362397         0.836104        -0.003701
 O         2.217643         0.333451        -0.679936
 H         4.115398        -0.238937         3.225663
 H         4.976539        -0.979732         1.827168
 H         5.340107         0.611618         2.343834
 H         2.126186        -1.611667         1.203966
 H         1.646187        -0.375387         2.622065
 H        -0.111016         0.587062        -1.049146
 H        -0.045200        -1.093322        -0.551773
 H        -1.024597        -0.006258         0.434800
 H         3.293440         2.638583         1.324950
 H         4.242494         0.849081        -0.540105
