19
Iteration:  1988
 C         4.352359         0.744447         2.620863
 C         3.314607         0.446200         1.595019
 C         1.716109         0.353339         1.869599
 C         1.269319         0.399196         0.398253
 C        -0.122694         0.201629         0.072307
 O         1.904315         1.701573        -0.002028
 C         3.242435         1.289970         0.318374
 C         3.350778        -0.239352         0.152117
 O         2.092163        -0.631169        -0.193993
 H         4.059603         1.627343         3.061277
 H         4.464637         0.088828         3.451607
 H         5.365205         0.898570         2.193271
 H         1.420389        -0.610652         2.333952
 H         1.258004         1.125788         2.525189
 H        -0.723898         0.215574         0.971213
 H        -0.460156         0.874067        -0.627761
 H        -0.140373        -0.817879        -0.274476
 H         4.046048         1.918422         0.009449
 H         4.209994        -0.810791        -0.261252
