19
Iteration:  2616
 C         4.276710         0.846443         2.581404
 C         3.222961         0.552639         1.572057
 C         1.727852         0.486140         1.885503
 C         1.305099         0.394545         0.406687
 C        -0.141600         0.328288         0.040588
 O         1.922256         1.570257        -0.183353
 C         3.281809         1.154982         0.164282
 C         3.431870        -0.318259         0.349548
 O         2.097321        -0.762132         0.040290
 H         4.049400         1.869428         2.879011
 H         4.310640         0.075605         3.385461
 H         5.168829         0.891868         1.947983
 H         1.595162        -0.348027         2.600088
 H         1.355805         1.441299         2.306343
 H        -0.637892         0.170603         0.979666
 H        -0.356763         1.282683        -0.466903
 H        -0.344115        -0.544992        -0.551758
 H         4.120613         1.862739        -0.099052
 H         4.088127        -0.999960        -0.123640
