19
Iteration:  2641
 C         4.413047         0.865722         2.641455
 C         3.230086         0.719367         1.651974
 C         1.751965         0.411695         1.884891
 C         1.259083         0.362996         0.424368
 C        -0.210080         0.382205         0.073825
 O         1.927479         1.382930        -0.307277
 C         3.324386         1.230472         0.237364
 C         3.412722        -0.232206         0.396388
 O         2.032249        -0.813800        -0.104380
 H         4.394459         2.001354         2.847065
 H         4.080553         0.274544         3.501792
 H         5.377959         0.514753         2.160122
 H         1.594766        -0.514959         2.425583
 H         1.298629         1.246012         2.402536
 H        -0.860170         0.272682         0.962656
 H        -0.204384         1.441917        -0.357443
 H        -0.401011        -0.353514        -0.698590
 H         3.860351         2.112192         0.019669
 H         4.247004        -1.020965         0.160980
