19
Iteration:  2923charge 0 multiplicity 1
 C         4.359084         0.866646         2.640206
 C         3.259523         0.568289         1.641805
 C         1.728429         0.599325         1.963229
 C         1.242130         0.500078         0.362284
 C        -0.120138         0.241568         0.072278
 O         1.946565         1.506886        -0.269162
 C         3.247027         1.192207         0.205332
 C         3.363564        -0.358275         0.373878
 O         2.076680        -0.822135        -0.110634
 H         4.040085         1.579173         3.418523
 H         4.761979         0.023235         3.194568
 H         5.296248         1.277239         2.193432
 H         1.342774        -0.319906         2.494658
 H         1.497333         1.607176         2.431646
 H        -0.426299        -0.728107         0.559786
 H        -0.733426         1.059890         0.435354
 H        -0.304705         0.218716        -1.064190
 H         3.985387         2.029358        -0.048797
 H         4.131112        -1.054029        -0.085620
