19
Iteration:   357charge 0 multiplicity 1
 C         4.533364        -0.088278         2.317056
 C         3.324272         0.299384         1.449193
 C         2.020062        -0.570883         1.478192
 C         1.308300         0.227551         0.390049
 C        -0.226805         0.002737         0.042892
 O         1.503982         1.631212         0.776559
 C         2.879160         1.695426         1.126600
 C         3.478067         0.735129         0.025043
 O         2.328178         0.360974        -0.734563
 H         4.451098         0.244687         3.318838
 H         4.883389        -1.135263         2.194548
 H         5.459970         0.452558         1.928734
 H         1.968276        -1.664951         1.249945
 H         1.400257        -0.594047         2.459085
 H        -0.876154         0.671381         0.616486
 H        -0.384710         0.169516        -1.045139
 H        -0.620875        -1.005756         0.285784
 H         3.225276         2.610939         1.555933
 H         4.295350         0.785740        -0.606345
