19
Iteration:   951
 C         4.518597         0.103926         2.367691
 C         3.247296         0.407825         1.593892
 C         1.848576        -0.200114         1.738901
 C         1.327129         0.327314         0.404206
 C        -0.086688        -0.002284        -0.008668
 O         1.622332         1.805726         0.540622
 C         3.040292         1.645903         0.789830
 C         3.376873         0.308610         0.090219
 O         2.211083        -0.103555        -0.646351
 H         4.474588         0.420754         3.503512
 H         4.763477        -0.961423         2.267902
 H         5.337277         0.746733         2.020223
 H         1.680135        -1.276383         1.792915
 H         1.468693         0.357100         2.648114
 H        -0.520342         0.724847        -0.754262
 H         0.022277        -0.990298        -0.535892
 H        -0.752630        -0.069616         0.860688
 H         3.482515         2.590112         1.123438
 H         4.354405         0.139468        -0.376087
