19
Iteration:  3356charge 0 multiplicity 1
 C         4.338557         0.742424         2.613103
 C         3.173009         0.571126         1.596237
 C         1.705684         0.673014         1.898700
 C         1.297224         0.427864         0.395603
 C        -0.192966         0.214986         0.115697
 O         1.979923         1.424908        -0.326899
 C         3.284932         1.287726         0.236866
 C         3.407937        -0.243079         0.329067
 O         2.110382        -0.760289        -0.001243
 H         4.452496         1.670106         3.107019
 H         4.169002        -0.075450         3.291425
 H         5.318618         0.530817         2.170272
 H         1.302739        -0.118348         2.518411
 H         1.490070         1.642347         2.306489
 H        -0.407645         0.257593        -0.989489
 H        -0.333793        -0.856076         0.318716
 H        -0.933671         0.852527         0.654415
 H         3.956595         2.105655         0.146488
 H         4.289018        -0.762168         0.064357
