19
Iteration:  1846charge 0 multiplicity 1
 C         4.335014         0.624473         2.628898
 C         3.303066         0.469664         1.642845
 C         1.846363         0.239888         1.964950
 C         1.298522         0.381129         0.409629
 C        -0.191344         0.270461         0.089592
 O         1.788361         1.602123        -0.038503
 C         3.195011         1.390767         0.335856
 C         3.401565        -0.084806         0.162295
 O         2.158355        -0.615303        -0.317982
 H         3.924296         1.049070         3.525359
 H         4.912112        -0.270665         3.023750
 H         5.263081         1.312193         2.315518
 H         1.648746        -0.774179         2.402326
 H         1.388313         0.982289         2.664437
 H        -0.468376        -0.176992        -0.868879
 H        -0.884057        -0.224447         0.749653
 H        -0.457375         1.271350        -0.060320
 H         3.977554         2.180995         0.044990
 H         4.207121        -0.659289        -0.340222
