19
Iteration:  2000
 C         4.295326         0.761165         2.626562
 C         3.185008         0.483972         1.583612
 C         1.808583         0.312034         1.880549
 C         1.345387         0.400126         0.430397
 C        -0.181632         0.251668         0.045545
 O         1.908334         1.597802         0.033042
 C         3.263046         1.290877         0.256437
 C         3.453431        -0.178920         0.197415
 O         2.067178        -0.652521        -0.184345
 H         4.164031         1.621712         3.169341
 H         4.555012        -0.203577         3.131479
 H         5.170543         0.976733         1.959804
 H         1.517014        -0.614076         2.408659
 H         1.495648         1.283251         2.336865
 H        -0.770546         0.182118         0.942641
 H        -0.509010         1.117212        -0.481240
 H        -0.405580        -0.589499        -0.607550
 H         3.824320         2.142073        -0.038655
 H         4.239871        -0.915958        -0.077010
