19
Iteration:  3047charge 0 multiplicity 1
 C         4.308888         0.680129         2.666671
 C         3.237288         0.686256         1.609012
 C         1.721670         0.571804         1.944362
 C         1.345160         0.318193         0.449286
 C        -0.173357         0.254996         0.069041
 O         1.911104         1.429967        -0.283945
 C         3.244260         1.286982         0.223901
 C         3.414478        -0.193945         0.241829
 O         2.108053        -0.708011        -0.055744
 H         4.749971         1.694814         2.984076
 H         4.267294         0.090741         3.610463
 H         5.198436         0.219292         2.164268
 H         1.500318        -0.353859         2.500398
 H         1.332585         1.550646         2.259557
 H        -0.881487         0.172360         0.923149
 H        -0.749244         1.116632        -0.457054
 H        -0.338247        -0.610084        -0.561836
 H         4.035841         2.101790         0.006203
 H         4.316246        -0.815563         0.117789
