19
Iteration:  1919charge 0 multiplicity 1
 C         4.376808         0.449217         2.609523
 C         3.257858         0.605409         1.600195
 C         1.793323         0.391468         1.898466
 C         1.299181         0.302598         0.417708
 C        -0.185818         0.246528         0.055887
 O         1.761672         1.559048        -0.110447
 C         3.168667         1.485742         0.333564
 C         3.423398        -0.051959         0.143010
 O         2.232320        -0.659356        -0.123336
 H         4.523768         1.275456         3.375434
 H         4.209798        -0.231539         3.390684
 H         5.319856         0.166638         2.189155
 H         1.759812        -0.569980         2.446581
 H         1.293616         1.134258         2.535840
 H        -0.588072         1.168665        -0.398911
 H        -0.520670        -0.454019        -0.813638
 H        -0.783022         0.143303         0.982051
 H         3.853317         2.334525         0.085843
 H         4.345346        -0.531549        -0.190307
