19
Iteration:   699
 C         4.396380         0.106692         2.485333
 C         3.388915         0.328377         1.447459
 C         2.010465        -0.479822         1.580747
 C         1.338154         0.300941         0.436291
 C        -0.055829         0.159021         0.008415
 O         1.560929         1.691253         0.765469
 C         2.922928         1.680565         0.827340
 C         3.423450         0.485031        -0.062224
 O         2.166976         0.011021        -0.650505
 H         4.061801         0.602645         3.481072
 H         4.528012        -0.947256         2.619488
 H         5.393714         0.526362         2.281706
 H         2.194091        -1.565390         1.541523
 H         1.493903        -0.144985         2.489432
 H        -0.098778         0.064191        -1.065147
 H        -0.495502        -0.767507         0.360077
 H        -0.664786         1.026330         0.256013
 H         3.409629         2.641387         0.805172
 H         4.347235         0.367477        -0.710614
