19
Iteration:  4488
 C         4.368218         0.748411         2.582880
 C         3.182500         0.527033         1.635358
 C         1.734051         0.511695         1.877234
 C         1.288277         0.400412         0.365965
 C        -0.199005         0.028645         0.162284
 O         1.958018         1.589233        -0.223395
 C         3.262108         1.277196         0.307043
 C         3.402485        -0.230034         0.304977
 O         2.081218        -0.582684        -0.146808
 H         4.510230         1.789577         2.844967
 H         4.359557         0.189326         3.517018
 H         5.244828         0.409897         2.017856
 H         1.322400        -0.268115         2.599046
 H         1.404780         1.581075         2.243107
 H        -0.416911        -0.141166        -0.950784
 H        -0.205431        -0.894451         0.778989
 H        -0.651326         0.996232         0.498523
 H         4.075573         1.973348        -0.036818
 H         4.181320        -0.922341         0.142482
