19
Iteration:   965charge 0 multiplicity 1
 C         4.584060         0.080433         2.387087
 C         3.244835         0.363300         1.611476
 C         1.779663        -0.116151         1.777640
 C         1.272265         0.319682         0.320990
 C        -0.164347        -0.000470         0.010774
 O         1.616818         1.776932         0.517600
 C         2.983693         1.658447         0.794064
 C         3.491747         0.398135         0.017037
 O         2.313520        -0.139372        -0.559305
 H         4.474872         0.151438         3.561298
 H         4.851745        -0.980989         2.306974
 H         5.370940         0.662980         1.938649
 H         1.917519        -1.239492         1.880327
 H         0.907687         0.154661         2.386530
 H        -0.715292         0.943508        -0.273768
 H        -0.361747        -0.747896        -0.774428
 H        -0.624547        -0.318963         0.973616
 H         3.588663         2.561338         0.803968
 H         4.317238         0.183331        -0.589646
