19
Iteration:  3339charge 0 multiplicity 1
 C         4.331568         0.691332         2.570690
 C         3.165884         0.657273         1.679479
 C         1.685231         0.675111         1.858584
 C         1.355354         0.399365         0.335796
 C        -0.061175         0.113283         0.157887
 O         1.989532         1.537140        -0.314506
 C         3.286322         1.235426         0.237592
 C         3.279064        -0.267986         0.473102
 O         2.070576        -0.713557        -0.111480
 H         4.306196         1.721907         3.119595
 H         4.617844        -0.163736         3.277655
 H         5.257675         0.893793         1.981202
 H         1.295201        -0.052002         2.622997
 H         1.119232         1.632560         2.102308
 H        -0.561961         0.362445        -0.746701
 H        -0.233398        -0.979430         0.342206
 H        -0.506494         0.756872         0.882134
 H         4.123323         1.665186        -0.332626
 H         4.033014        -1.085092         0.368893
