19
Iteration:  1740charge 0 multiplicity 1
 C         4.343051         0.425412         2.602695
 C         3.310204         0.548938         1.542563
 C         1.832331         0.241099         1.865696
 C         1.291546         0.400052         0.451474
 C        -0.151729         0.108976         0.062679
 O         1.761811         1.638372         0.030769
 C         3.216117         1.501010         0.410389
 C         3.400824         0.023425         0.150916
 O         2.113995        -0.537302        -0.274615
 H         4.493653         1.412475         3.194462
 H         4.062662        -0.385660         3.322522
 H         5.309234         0.274111         2.124515
 H         1.886722        -0.793961         2.147979
 H         1.433266         0.827790         2.673334
 H        -0.766361        -0.255452         0.968568
 H        -0.408259         1.072625        -0.342312
 H        -0.218562        -0.635669        -0.771462
 H         3.888389         2.381303         0.241260
 H         4.311024        -0.512386        -0.130778
