19
Iteration:   883
 C         4.392626         0.231035         2.523116
 C         3.269439         0.319259         1.498290
 C         1.928959        -0.442203         1.665575
 C         1.329063         0.273911         0.431815
 C        -0.178741         0.180444         0.135880
 O         1.592081         1.646743         0.570453
 C         2.975551         1.638699         0.659869
 C         3.515064         0.430727        -0.006475
 O         2.292665        -0.049277        -0.667066
 H         4.191177         0.838297         3.415555
 H         4.470096        -0.875526         2.809858
 H         5.426028         0.619885         2.159585
 H         2.055830        -1.523186         1.638639
 H         1.436321        -0.092617         2.586074
 H        -0.512767        -0.452400        -0.671675
 H        -0.719771         0.126418         1.102671
 H        -0.297595         1.225987        -0.251847
 H         3.486716         2.549398         1.054177
 H         4.437567         0.442155        -0.626891
