19
Iteration:  3731charge 0 multiplicity 1
 C         4.368526         0.993191         2.735699
 C         3.397873         0.555057         1.606613
 C         1.862957         0.470391         1.998967
 C         1.275357         0.328152         0.421007
 C        -0.206058         0.283584        -0.101942
 O         1.865624         1.514794        -0.147862
 C         3.260051         1.205289         0.234419
 C         3.328406        -0.340794         0.236412
 O         2.017031        -0.766362        -0.081699
 H         4.174113         2.051857         2.882615
 H         4.115402         0.379806         3.611417
 H         5.380910         0.845377         2.376989
 H         1.532681        -0.433690         2.543525
 H         1.588905         1.388670         2.553777
 H        -0.006282         0.542210        -1.231062
 H        -0.572580        -0.754812        -0.031186
 H        -0.924508         1.058419         0.432228
 H         4.019588         1.890278        -0.158252
 H         4.041373        -0.916250        -0.312107
