19
Iteration:  4484
 C         4.361479         0.731726         2.594187
 C         3.196252         0.556984         1.645030
 C         1.729050         0.547500         1.873426
 C         1.275476         0.367246         0.375522
 C        -0.225117         0.019854         0.164110
 O         1.965970         1.611980        -0.194775
 C         3.290419         1.259670         0.302756
 C         3.379997        -0.230453         0.252969
 O         2.114312        -0.579610        -0.141571
 H         4.511442         1.809425         2.849300
 H         4.446987         0.254568         3.610670
 H         5.188087         0.297602         1.998249
 H         1.372303        -0.170785         2.558821
 H         1.208040         1.435576         2.267754
 H        -0.387880        -0.148782        -0.930798
 H        -0.194468        -0.831507         0.791206
 H        -0.816076         0.927913         0.354310
 H         3.988495         1.857446        -0.187059
 H         4.226881        -0.998857         0.135069
