19
Iteration:  2916
 C         4.424091         0.857262         2.664130
 C         3.236118         0.531179         1.660971
 C         1.721481         0.617946         1.898254
 C         1.309508         0.504328         0.401467
 C        -0.215850         0.211708         0.046820
 O         1.947399         1.528432        -0.267881
 C         3.286179         1.215770         0.212544
 C         3.346235        -0.371491         0.331605
 O         2.059709        -0.813290        -0.083433
 H         4.006312         1.670691         3.374230
 H         4.652596         0.000808         3.352883
 H         5.354329         1.331210         2.266272
 H         1.422206        -0.125038         2.633619
 H         1.472505         1.551143         2.412200
 H        -0.342172        -0.831048         0.377968
 H        -0.931117         0.914206         0.494741
 H        -0.296510         0.190742        -1.054861
 H         3.943315         1.909306        -0.186984
 H         4.229804        -0.887667        -0.077796
