19
Iteration:  2042
 C         4.371085         0.622774         2.666136
 C         3.297109         0.577226         1.618834
 C         1.752649         0.360624         1.861016
 C         1.266989         0.348278         0.415372
 C        -0.157197         0.317294         0.079448
 O         1.839907         1.519053        -0.171241
 C         3.251132         1.373747         0.141868
 C         3.364791        -0.074773         0.313784
 O         2.125228        -0.725293        -0.067915
 H         4.299829         1.101594         3.578031
 H         4.640919        -0.346871         2.839352
 H         5.282464         1.023544         2.190302
 H         1.482911        -0.643846         2.256341
 H         1.403988         1.255997         2.398032
 H        -0.517417        -0.569662         0.598166
 H        -0.735863         1.082711         0.465530
 H        -0.344472         0.403743        -0.981646
 H         3.931880         2.214308         0.022716
 H         4.270979        -0.550220        -0.132883
