19
Iteration:  1633charge 0 multiplicity 1
 C         4.307229         0.418342         2.617699
 C         3.244961         0.550205         1.587424
 C         1.853195         0.235839         1.894951
 C         1.333015         0.261252         0.441611
 C        -0.098701         0.183927         0.067390
 O         1.773448         1.676728         0.159141
 C         3.143495         1.469077         0.395138
 C         3.410215         0.076576         0.019878
 O         2.183654        -0.551405        -0.333507
 H         3.986281         1.040449         3.522069
 H         4.482474        -0.622524         2.718689
 H         5.202068         0.733653         2.233781
 H         1.678068        -0.797570         2.210493
 H         1.203420         0.833440         2.543473
 H        -0.319123         1.094764        -0.537886
 H        -0.374633        -0.642662        -0.521530
 H        -0.659713         0.129562         1.032948
 H         3.791344         2.277639         0.237629
 H         4.294259        -0.406751        -0.371832
