19
Iteration:  3644
 C         4.336281         0.706951         2.610384
 C         3.215465         0.676856         1.588973
 C         1.669689         0.585563         1.842680
 C         1.294761         0.350935         0.383090
 C        -0.144665         0.168237         0.137423
 O         1.960364         1.556175        -0.233732
 C         3.259356         1.260064         0.229163
 C         3.346253        -0.242196         0.436474
 O         2.144932        -0.740940        -0.105358
 H         4.412026         1.479796         3.370239
 H         4.620776        -0.277543         3.002250
 H         5.244811         0.998575         2.065530
 H         1.254793        -0.160906         2.526841
 H         1.415545         1.612760         2.113413
 H        -0.419806        -0.356978        -0.858353
 H        -0.637471        -0.565321         0.828998
 H        -0.651481         1.222953         0.136573
 H         4.058265         1.851682        -0.180636
 H         4.211727        -0.951059         0.245683
