19
Iteration:  1643
 C         4.346792         0.486316         2.600838
 C         3.271516         0.531853         1.561671
 C         1.778929         0.161010         1.847573
 C         1.312888         0.366773         0.413795
 C        -0.175612         0.160068         0.067581
 O         1.791712         1.654811         0.163190
 C         3.240938         1.508883         0.449536
 C         3.424119         0.015320         0.050202
 O         2.138250        -0.562652        -0.361216
 H         4.073573         0.848574         3.653792
 H         4.510608        -0.536682         2.907397
 H         5.216843         0.963871         2.343075
 H         1.772167        -0.762548         2.374140
 H         1.475348         1.004899         2.458960
 H        -0.653401         1.101739        -0.357499
 H        -0.184172        -0.684058        -0.581281
 H        -0.751119        -0.109228         0.973647
 H         3.841482         2.362232         0.363116
 H         4.340515        -0.439491        -0.299976
