19
Iteration:  1115charge 0 multiplicity 1
 C         4.424020         0.150275         2.495657
 C         3.313551         0.370432         1.463484
 C         1.873521        -0.150784         1.902467
 C         1.280948         0.291056         0.480761
 C        -0.055119         0.068832        -0.003301
 O         1.593009         1.770493         0.416419
 C         3.053987         1.675555         0.572374
 C         3.401937         0.364225        -0.058234
 O         2.245302        -0.238216        -0.437700
 H         4.218439         0.459738         3.509208
 H         4.410896        -0.989354         2.443247
 H         5.445652         0.580015         2.214487
 H         1.737806        -1.193003         2.227761
 H         1.325994         0.442835         2.664723
 H         0.001051        -0.333767        -1.052736
 H        -0.706481        -0.483584         0.683360
 H        -0.507051         1.091018        -0.126998
 H         3.621018         2.656959         0.566892
 H         4.437864         0.021248        -0.455828
