19
Iteration:  3471
 C         4.369362         0.700179         2.665463
 C         3.203789         0.731743         1.556418
 C         1.725865         0.538376         1.976288
 C         1.292188         0.376242         0.419716
 C        -0.226331         0.232189         0.027723
 O         1.950976         1.463480        -0.304428
 C         3.294768         1.307488         0.114941
 C         3.403376        -0.251851         0.367484
 O         2.097092        -0.768360         0.034190
 H         4.088866         1.533523         3.349518
 H         4.502587        -0.274043         3.197546
 H         5.300928         1.154492         2.295821
 H         1.585973        -0.316730         2.675827
 H         1.332458         1.524131         2.309855
 H        -0.183494        -0.016805        -1.006069
 H        -0.724955        -0.516584         0.587473
 H        -0.792385         1.176300         0.125630
 H         4.077638         1.865245        -0.334637
 H         4.206632        -0.893670         0.150098
