19
Iteration:  2771
 C         4.408254         0.906431         2.657373
 C         3.271126         0.638629         1.590388
 C         1.713575         0.540923         1.882219
 C         1.288307         0.367235         0.385770
 C        -0.203183         0.368020        -0.021536
 O         1.897422         1.435621        -0.235189
 C         3.310017         1.154358         0.191270
 C         3.371222        -0.350666         0.339949
 O         2.062408        -0.797193         0.038721
 H         4.144959         1.663974         3.425959
 H         4.578101         0.004661         3.233979
 H         5.396140         1.353979         2.334867
 H         1.388282        -0.232582         2.577488
 H         1.387351         1.488585         2.322205
 H        -0.544525        -0.615707        -0.338540
 H        -0.740546         0.599757         0.907188
 H        -0.331492         1.084587        -0.830518
 H         4.066723         1.761564        -0.348954
 H         4.302390        -0.860626         0.118967
