19
Iteration:  1665charge 0 multiplicity 1
 C         4.402697         0.557500         2.602057
 C         3.293880         0.319192         1.664371
 C         1.795527         0.181809         1.869223
 C         1.320388         0.403456         0.429567
 C        -0.219437         0.109643         0.047496
 O         1.809019         1.772335         0.053231
 C         3.154348         1.389850         0.404874
 C         3.396862        -0.049101         0.130679
 O         2.165293        -0.415950        -0.349381
 H         4.018697         0.981894         3.628972
 H         4.851330        -0.354403         2.969200
 H         5.054450         1.175361         2.126648
 H         1.581996        -0.875524         1.909774
 H         1.430017         0.703151         2.735431
 H        -0.747872         1.116755         0.086673
 H        -0.280502        -0.449240        -0.840728
 H        -0.552637        -0.547172         0.882769
 H         3.946628         2.076739         0.302811
 H         4.294766        -0.484573        -0.280282
