19
Iteration:  2067
 C         4.255616         0.609089         2.601199
 C         3.246927         0.641919         1.555872
 C         1.808879         0.572475         1.979006
 C         1.292261         0.380039         0.429766
 C        -0.097692         0.099543         0.066521
 O         1.915056         1.643865        -0.130621
 C         3.226535         1.323333         0.301742
 C         3.398014        -0.259684         0.157382
 O         2.065159        -0.662300        -0.143408
 H         4.216534         1.245496         3.447607
 H         4.401045        -0.511480         2.853634
 H         5.236636         0.891731         2.191501
 H         1.553228        -0.352798         2.542791
 H         1.469759         1.587275         2.341071
 H        -0.158280        -0.968000         0.040689
 H        -0.795980         0.314490         0.939280
 H        -0.562230         0.775955        -0.677207
 H         4.131041         1.887552        -0.034791
 H         4.174969        -0.991838         0.202132
