19
Iteration:  3426
 C         4.318960         0.924549         2.580742
 C         3.288451         0.412764         1.644074
 C         1.725037         0.490995         1.876087
 C         1.263794         0.389994         0.376781
 C        -0.231595         0.270200         0.009771
 O         2.012090         1.562181        -0.202458
 C         3.286528         1.224450         0.246674
 C         3.399499        -0.253498         0.352976
 O         2.076378        -0.792609        -0.018538
 H         4.200155         2.027058         2.577797
 H         4.327766         0.252117         3.480691
 H         5.286101         0.974645         2.042432
 H         1.292113        -0.369314         2.431728
 H         1.375597         1.467859         2.298576
 H        -0.597881        -0.363881        -0.771155
 H        -0.507617        -0.217995         0.968855
 H        -0.667473         1.255440         0.074288
 H         4.022228         2.051919        -0.017942
 H         4.169110        -0.939531        -0.028146
