19
Iteration:  4926charge 0 multiplicity 1
 C         4.362759         0.788147         2.697937
 C         3.252950         0.537673         1.561463
 C         1.699423         0.621201         1.860062
 C         1.249472         0.546630         0.466474
 C        -0.171493         0.010304         0.123135
 O         1.980313         1.602841        -0.247989
 C         3.312379         1.202474         0.221045
 C         3.369589        -0.292681         0.291763
 O         2.042069        -0.688774        -0.101243
 H         4.192361         1.604229         3.448752
 H         4.704138        -0.135221         3.226485
 H         5.212202         1.142649         2.069334
 H         1.337624        -0.045273         2.549681
 H         1.644283         1.599386         2.223759
 H        -0.498066        -0.047212        -0.949029
 H        -0.242703        -1.004175         0.500078
 H        -0.922290         0.470635         0.797541
 H         4.077158         1.800414        -0.180779
 H         4.153577        -0.996089        -0.199138
