19
Iteration:  1244
 C         4.371219         0.334674         2.474007
 C         3.281807         0.365744         1.519658
 C         1.831023        -0.064067         1.778872
 C         1.242620         0.382630         0.430941
 C        -0.134067         0.049313         0.000237
 O         1.709661         1.832188         0.445853
 C         3.147682         1.538470         0.651198
 C         3.443999         0.202412         0.004406
 O         2.203220        -0.343021        -0.470359
 H         4.189851         1.105365         3.162384
 H         4.643763        -0.608047         3.003966
 H         5.253717         0.613912         1.818101
 H         1.671264        -1.115611         1.875717
 H         1.492715         0.444060         2.669694
 H        -0.681577        -0.209208         0.906516
 H        -0.571097         0.927488        -0.387809
 H        -0.104093        -0.803251        -0.642947
 H         3.878716         2.337264         0.778848
 H         4.321896        -0.227278        -0.531997
