19
Iteration:  2246charge 0 multiplicity 1
 C         4.313718         0.595543         2.612229
 C         3.195104         0.655923         1.606961
 C         1.753797         0.556560         1.893094
 C         1.270227         0.397747         0.442966
 C        -0.184831         0.299932         0.118778
 O         1.841811         1.467237        -0.289894
 C         3.280171         1.281809         0.101269
 C         3.400515        -0.186866         0.358219
 O         2.229947        -0.739538         0.003948
 H         4.185525         1.431803         3.350996
 H         4.322217        -0.353315         3.111005
 H         5.257435         0.764329         2.076760
 H         1.412902        -0.121473         2.642861
 H         1.492568         1.499614         2.306973
 H        -0.793003         0.982088         0.720420
 H        -0.299022         0.553888        -0.917886
 H        -0.488645        -0.722826         0.336679
 H         4.078960         1.906450        -0.453690
 H         4.258191        -0.820044         0.360950
