19
Iteration:  3708charge 0 multiplicity 1
 C         4.276434         0.837777         2.759324
 C         3.333120         0.689788         1.560900
 C         1.794881         0.551953         1.903143
 C         1.257398         0.347873         0.530615
 C        -0.076200         0.223472        -0.069215
 O         1.906640         1.527043        -0.096817
 C         3.279994         1.232426         0.048159
 C         3.320293        -0.287738         0.163130
 O         2.029107        -0.811280         0.026464
 H         4.116645         1.794684         3.240493
 H         4.064562        -0.018726         3.428993
 H         5.282395         0.728890         2.327110
 H         1.715798        -0.301315         2.589520
 H         1.518639         1.453099         2.485134
 H         0.082809         0.487400        -1.161375
 H        -0.448170        -0.819545         0.108767
 H        -0.693010         0.981774         0.546297
 H         3.834112         1.963996        -0.521967
 H         4.238867        -0.899546        -0.100495
