19
Iteration:  3932charge 0 multiplicity 1
 C         4.286581         0.915951         2.693797
 C         3.318383         0.512680         1.552570
 C         1.903479         0.408748         1.926934
 C         1.315664         0.404017         0.479484
 C        -0.028580         0.260060        -0.054706
 O         1.827907         1.552659        -0.199943
 C         3.270474         1.285454         0.248515
 C         3.306265        -0.291156         0.186492
 O         1.978966        -0.785890         0.015535
 H         4.075011         1.977760         2.874775
 H         4.072241         0.495373         3.666280
 H         5.341007         0.722955         2.435292
 H         1.568273        -0.346230         2.585582
 H         1.743459         1.398263         2.370599
 H        -0.064838         0.473808        -1.132412
 H        -0.509571        -0.858868        -0.015012
 H        -0.765147         0.823611         0.604685
 H         4.039544         2.028916        -0.116298
 H         4.037826        -0.965339        -0.153433
