19
Iteration:  1918
 C         4.382086         0.451930         2.602024
 C         3.262466         0.604138         1.603930
 C         1.786119         0.389818         1.900241
 C         1.298171         0.303953         0.413721
 C        -0.187833         0.239364         0.057436
 O         1.759228         1.556484        -0.112028
 C         3.178704         1.485596         0.331299
 C         3.419771        -0.061692         0.140795
 O         2.233117        -0.644192        -0.119102
 H         4.512193         1.277382         3.392874
 H         4.201482        -0.259271         3.393134
 H         5.324198         0.175143         2.224601
 H         1.748625        -0.560686         2.443762
 H         1.286792         1.113768         2.543926
 H        -0.568837         1.163324        -0.412810
 H        -0.518046        -0.467185        -0.818767
 H        -0.806986         0.174661         0.993768
 H         3.837694         2.327772         0.100339
 H         4.350472        -0.519735        -0.194090
