19
Iteration:  4333
 C         4.273090         0.677887         2.597234
 C         3.231509         0.751000         1.534477
 C         1.780690         0.595482         1.926508
 C         1.300429         0.318356         0.509779
 C        -0.114023         0.243382         0.020270
 O         1.858906         1.483669        -0.171741
 C         3.248240         1.282887         0.099134
 C         3.398160        -0.206718         0.303317
 O         2.153622        -0.813965        -0.008632
 H         4.097869         1.354975         3.405014
 H         4.314052        -0.352825         2.919371
 H         5.288534         0.939194         2.363137
 H         1.817448        -0.286583         2.624975
 H         1.098993         1.311543         2.510907
 H        -0.229983         0.826584        -0.937805
 H        -0.725618        -0.650504         0.024634
 H        -0.614788         0.798471         0.850457
 H         3.942786         2.069936        -0.293136
 H         4.312801        -0.704060         0.093292
