19
Iteration:  3970charge 0 multiplicity 1
 C         4.341196         0.697808         2.670725
 C         3.189199         0.725581         1.629825
 C         1.697744         0.567505         1.872293
 C         1.314134         0.320826         0.356964
 C        -0.151784         0.157483         0.142694
 O         1.922869         1.529865        -0.259406
 C         3.297553         1.318763         0.181053
 C         3.388886        -0.226113         0.386431
 O         2.096361        -0.731618        -0.097114
 H         4.423754         1.632778         3.253698
 H         4.400143        -0.270914         3.223439
 H         5.216600         0.601810         2.004517
 H         1.558107        -0.313956         2.581462
 H         1.179147         1.495652         2.175174
 H        -0.403877         0.329800        -0.926677
 H        -0.344794        -0.798515         0.461635
 H        -0.529249         0.997068         0.676646
 H         4.067067         1.863573        -0.306378
 H         4.119376        -1.074326         0.243101
