19
Iteration:  2543charge 0 multiplicity 1
 C         4.309091         0.636380         2.628335
 C         3.213441         0.660415         1.648581
 C         1.766995         0.626751         1.921369
 C         1.371122         0.411061         0.370382
 C        -0.163693         0.309924         0.069506
 O         1.880887         1.423973        -0.362369
 C         3.249897         1.305230         0.139916
 C         3.380386        -0.227546         0.394527
 O         2.118992        -0.828651         0.079798
 H         4.225833         1.525312         3.301813
 H         4.395609        -0.293709         3.097812
 H         5.190233         0.844339         1.960976
 H         1.289299        -0.149878         2.484561
 H         1.339044         1.582132         2.182421
 H        -0.484266        -0.316126         0.885573
 H        -0.508166         1.391088         0.005775
 H        -0.388159        -0.262563        -0.811144
 H         4.002139         2.048029        -0.115277
 H         4.332348        -0.595447         0.023068
