19
Iteration:  1583charge 0 multiplicity 1
 C         4.400645         0.404974         2.578187
 C         3.225606         0.495227         1.627636
 C         1.752543         0.124460         1.842623
 C         1.280532         0.330736         0.428670
 C        -0.138428         0.063198         0.079538
 O         1.818480         1.793692         0.118287
 C         3.169739         1.532295         0.492530
 C         3.423119         0.038199         0.128344
 O         2.171832        -0.467618        -0.383514
 H         4.448364         1.306910         3.131517
 H         4.340259        -0.602903         3.065637
 H         5.395000         0.261691         1.948904
 H         1.640343        -0.904430         2.302151
 H         1.211191         0.850825         2.509322
 H        -0.179406        -0.303368        -0.941393
 H        -0.558650        -0.754802         0.750257
 H        -0.835953         0.956352         0.199329
 H         3.967100         2.249831         0.227814
 H         4.278207        -0.150413        -0.511818
