19
Iteration:  1606charge 0 multiplicity 1
 C         4.390704         0.347579         2.645278
 C         3.307693         0.521100         1.570030
 C         1.891706         0.140346         1.892876
 C         1.239586         0.375119         0.425902
 C        -0.163623         0.184362         0.003297
 O         1.678615         1.631132         0.080881
 C         3.154104         1.577500         0.371482
 C         3.465980         0.144821         0.140384
 O         2.198929        -0.532153        -0.283267
 H         4.370888         1.101503         3.389393
 H         4.181087        -0.730932         2.910302
 H         5.473810         0.226259         2.181328
 H         1.659738        -0.933326         2.159484
 H         1.392438         0.806164         2.634716
 H        -0.463950         0.457226        -1.024061
 H        -0.476171        -0.919467         0.194601
 H        -0.805058         0.762455         0.722674
 H         3.746289         2.545724         0.235211
 H         4.363121        -0.396700        -0.190819
