19
Iteration:  2296
 C         4.334009         0.894063         2.604998
 C         3.282541         0.445396         1.645345
 C         1.823410         0.531945         1.920341
 C         1.270213         0.454924         0.455018
 C        -0.188318         0.243936         0.011256
 O         1.945203         1.486647        -0.173700
 C         3.236679         1.156833         0.175365
 C         3.395218        -0.352028         0.320161
 O         2.047684        -0.643737        -0.087197
 H         4.219234         1.949331         2.699577
 H         4.112126         0.393586         3.612378
 H         5.341279         0.649524         2.275193
 H         1.286103        -0.276427         2.520831
 H         1.639849         1.451843         2.567336
 H        -0.927446         0.344274         0.831887
 H        -0.599126         1.027671        -0.726126
 H        -0.151194        -0.812165        -0.292125
 H         3.997952         1.888710        -0.103967
 H         4.270221        -0.636600        -0.235234
