19
Iteration:   989
 C         4.436003         0.089642         2.411364
 C         3.288272         0.357115         1.524358
 C         1.949079        -0.184706         1.770036
 C         1.294159         0.305697         0.465298
 C        -0.112187         0.125989         0.061141
 O         1.571061         1.725003         0.419870
 C         2.940246         1.755133         0.696792
 C         3.443395         0.365984         0.077183
 O         2.317684        -0.195218        -0.562604
 H         4.135354         0.176939         3.460343
 H         4.643368        -1.014814         2.403295
 H         5.372714         0.619081         2.117023
 H         1.907651        -1.312569         1.771820
 H         1.400713         0.146213         2.666682
 H        -0.698751         0.997866         0.288516
 H        -0.119977        -0.018056        -1.016553
 H        -0.592016        -0.753536         0.544079
 H         3.440016         2.632270         1.145387
 H         4.337544         0.278905        -0.601338
