19
Iteration:  2960
 C         4.364520         0.828546         2.692651
 C         3.324210         0.675023         1.534381
 C         1.691443         0.452732         1.887968
 C         1.294300         0.321763         0.425182
 C        -0.263369         0.400363         0.002821
 O         1.927752         1.484068        -0.228831
 C         3.268317         1.267601         0.149706
 C         3.415880        -0.228288         0.316750
 O         2.131572        -0.895753         0.056024
 H         4.051829         1.606663         3.475941
 H         4.529486        -0.218164         3.047325
 H         5.263037         1.214102         2.159926
 H         1.323918        -0.476792         2.313591
 H         1.172336         1.223302         2.451277
 H        -0.871846         0.073297         0.858229
 H        -0.403747         1.504672        -0.103690
 H        -0.517143        -0.157192        -0.890564
 H         4.002111         1.956807        -0.141994
 H         4.280929        -0.788941         0.047404
