19
Iteration:  1677
 C         4.377177         0.580920         2.599185
 C         3.176662         0.390726         1.613786
 C         1.765369         0.074324         1.901881
 C         1.287704         0.425021         0.386417
 C        -0.044726         0.155667         0.089631
 O         1.822752         1.719882         0.070344
 C         3.232712         1.407139         0.423892
 C         3.402780        -0.009550         0.117966
 O         2.094415        -0.482883        -0.343980
 H         4.206917         1.227692         3.540138
 H         4.906460        -0.338397         2.772426
 H         5.144677         1.126620         2.151635
 H         1.558215        -0.946048         2.227545
 H         1.281007         0.758598         2.603915
 H        -0.675846         1.022529         0.350477
 H        -0.252364         0.023780        -0.938814
 H        -0.485421        -0.692430         0.681288
 H         3.962372         2.237369         0.347761
 H         4.221462        -0.515075        -0.387689
