19
Iteration:  1330
 C         4.387399         0.316416         2.628393
 C         3.328295         0.469295         1.512932
 C         1.930729        -0.030143         1.869668
 C         1.309043         0.293329         0.431431
 C        -0.167543         0.145737         0.056961
 O         1.720824         1.740866         0.282758
 C         3.071262         1.570904         0.569170
 C         3.418855         0.139120         0.044266
 O         2.151963        -0.340385        -0.525803
 H         3.953054         0.662537         3.525499
 H         4.604553        -0.733238         2.715825
 H         5.365600         0.832428         2.566910
 H         1.822598        -1.089227         2.076602
 H         1.528902         0.605125         2.677070
 H        -0.159446        -0.500786        -0.865788
 H        -0.699227        -0.398252         0.809845
 H        -0.716992         1.048340        -0.200310
 H         3.673594         2.420287         0.416010
 H         4.241692        -0.112532        -0.620979
