19
Iteration:   704charge 0 multiplicity 1
 C         4.400628         0.132201         2.524311
 C         3.368396         0.324329         1.407524
 C         2.011763        -0.466908         1.592868
 C         1.315115         0.268860         0.438905
 C        -0.043949         0.162421        -0.010429
 O         1.597870         1.703868         0.764433
 C         2.926300         1.665359         0.841207
 C         3.410023         0.452907        -0.056411
 O         2.130948         0.033687        -0.688821
 H         3.995062         0.661157         3.380552
 H         4.622253        -0.978581         2.656019
 H         5.398147         0.516519         2.269942
 H         2.184170        -1.546475         1.570152
 H         1.646355        -0.218619         2.626388
 H         0.110612         0.208298        -1.128435
 H        -0.305970        -0.842060         0.425322
 H        -0.759607         0.901454         0.411285
 H         3.393068         2.659835         0.899066
 H         4.301953         0.377859        -0.601057
