19
Iteration:  4814charge 0 multiplicity 1
 C         4.339416         0.772762         2.544379
 C         3.176408         0.498011         1.645167
 C         1.707086         0.556688         1.852298
 C         1.285164         0.431405         0.380434
 C        -0.129342         0.062798         0.161663
 O         2.026998         1.667220        -0.217339
 C         3.284275         1.306234         0.286090
 C         3.344693        -0.252395         0.276300
 O         2.030618        -0.718953        -0.105135
 H         4.300241         1.758720         3.076238
 H         4.380008        -0.010711         3.342367
 H         5.320660         0.741891         1.990938
 H         1.488292        -0.201621         2.585286
 H         1.437472         1.434057         2.399672
 H        -0.179957        -0.480043        -0.782608
 H        -0.235343        -0.850898         0.888566
 H        -0.981751         0.769131         0.225889
 H         4.189134         1.994824         0.302550
 H         4.183112        -0.853156        -0.066719
