19
Iteration:  3784charge 0 multiplicity 1
 C         4.411035         0.757465         2.605370
 C         3.225885         0.672674         1.672333
 C         1.741918         0.494356         1.860056
 C         1.298528         0.295962         0.297267
 C        -0.235075         0.244870         0.107331
 O         1.933225         1.474364        -0.267266
 C         3.218466         1.299667         0.268790
 C         3.374105        -0.179358         0.429269
 O         2.145913        -0.744921        -0.104536
 H         4.224121         1.663977         3.202727
 H         4.545733        -0.143070         3.259139
 H         5.326279         0.923915         1.990033
 H         1.419889        -0.408380         2.395222
 H         1.231026         1.417436         2.215549
 H        -0.548624        -0.006865        -0.921688
 H        -0.574378        -0.577456         0.702975
 H        -0.637188         1.209679         0.465337
 H         4.007615         1.961947        -0.109361
 H         4.242118        -0.769455         0.424107
