19
Iteration:  1844
 C         4.345362         0.624866         2.615781
 C         3.306851         0.494080         1.651393
 C         1.846023         0.231654         1.953682
 C         1.300529         0.370249         0.422008
 C        -0.179892         0.276959         0.078426
 O         1.779925         1.604320        -0.041111
 C         3.188495         1.413347         0.340124
 C         3.412728        -0.102388         0.164829
 O         2.147874        -0.633944        -0.322067
 H         3.897727         1.103952         3.575137
 H         4.859536        -0.306318         2.966481
 H         5.288723         1.293014         2.428626
 H         1.634660        -0.802351         2.371869
 H         1.393957         0.948809         2.691565
 H        -0.472103        -0.172218        -0.871671
 H        -0.939540        -0.158775         0.852720
 H        -0.437783         1.320991        -0.090670
 H         3.970692         2.128759         0.094153
 H         4.235729        -0.609372        -0.362179
