19
Iteration:  2737
 C         4.315494         0.752149         2.566582
 C         3.209478         0.682149         1.524565
 C         1.708185         0.597286         1.909982
 C         1.316319         0.372160         0.331183
 C        -0.174402         0.276407         0.070882
 O         1.970161         1.404157        -0.325429
 C         3.296145         1.266667         0.240841
 C         3.373277        -0.250244         0.412090
 O         2.093089        -0.775700         0.106361
 H         4.008366         1.434011         3.342994
 H         4.435353        -0.255915         2.936169
 H         5.237487         0.984225         2.028063
 H         1.432460        -0.234015         2.574619
 H         1.385075         1.597167         2.247736
 H        -0.589787        -0.716424         0.034579
 H        -0.614757         0.909307         0.918408
 H        -0.443238         0.826652        -0.808401
 H         4.131443         1.769598        -0.135439
 H         4.391590        -0.761846         0.256941
