19
Iteration:  1224charge 0 multiplicity 1
 C         4.390512         0.373499         2.571468
 C         3.337609         0.383499         1.488652
 C         1.948901        -0.210186         1.866899
 C         1.282112         0.353951         0.467058
 C        -0.120945         0.185034         0.024797
 O         1.683499         1.693736         0.359776
 C         3.062030         1.568266         0.597217
 C         3.385101         0.192542        -0.021027
 O         2.157408        -0.255329        -0.503601
 H         4.083203         0.988112         3.432193
 H         4.473352        -0.607668         3.170093
 H         5.453706         0.547054         2.199332
 H         1.857830        -1.283634         1.864565
 H         1.438733         0.281053         2.674083
 H        -0.880826         0.538064         0.726018
 H        -0.139039         0.815435        -0.843421
 H        -0.136879        -0.904591        -0.235021
 H         3.606624         2.489416         0.533017
 H         4.276924        -0.038838        -0.591941
