19
Iteration:  3449charge 0 multiplicity 1
 C         4.338253         0.874981         2.554250
 C         3.141463         0.576024         1.619138
 C         1.663085         0.578994         1.838048
 C         1.325704         0.401270         0.337692
 C        -0.120703         0.207271         0.183716
 O         1.995720         1.503592        -0.220298
 C         3.270511         1.202136         0.290185
 C         3.346254        -0.303274         0.426723
 O         2.116054        -0.752144        -0.134442
 H         4.336939         1.860903         3.083015
 H         4.464912        -0.110964         3.037332
 H         5.196759         1.118319         1.895956
 H         1.416219        -0.349719         2.403307
 H         1.220798         1.534605         2.237728
 H        -0.247574        -0.192213        -0.792514
 H        -0.604832        -0.351089         0.927783
 H        -0.465980         1.253816         0.110645
 H         4.170922         1.770052         0.093127
 H         4.068037        -1.036534         0.245580
