19
Iteration:  4518charge 0 multiplicity 1
 C         4.295336         0.763574         2.623223
 C         3.212502         0.634102         1.558905
 C         1.762496         0.425741         1.892801
 C         1.269948         0.408835         0.459593
 C        -0.161252         0.282727         0.086417
 O         1.884031         1.502405        -0.154976
 C         3.227736         1.307911         0.211493
 C         3.436346        -0.199999         0.217030
 O         2.151648        -0.802129        -0.028201
 H         4.245181         1.697064         3.215017
 H         4.442167        -0.171232         3.209609
 H         5.200130         1.011617         2.033836
 H         1.711903        -0.508304         2.410598
 H         1.400856         1.356624         2.334831
 H        -0.264978         0.574677        -1.030863
 H        -0.586513        -0.699049         0.189691
 H        -0.597082         0.990962         0.807747
 H         3.979402         1.885047        -0.297353
 H         4.297044        -0.846634         0.032250
