19
Iteration:  2692charge 0 multiplicity 1
 C         4.261146         0.788705         2.629565
 C         3.261157         0.633793         1.570375
 C         1.827139         0.687042         1.902887
 C         1.308741         0.367108         0.488113
 C        -0.133332         0.133820         0.023935
 O         1.981947         1.514809        -0.236391
 C         3.271105         1.251362         0.185118
 C         3.317267        -0.378047         0.281970
 O         2.046046        -0.682618         0.010874
 H         4.200120         1.752189         3.049090
 H         3.861472         0.074582         3.364998
 H         5.185032         0.380206         2.264846
 H         1.474910        -0.097321         2.611782
 H         1.563605         1.712156         2.255978
 H        -0.383571        -0.629924         0.728874
 H        -0.754464         1.053546         0.256182
 H        -0.006142        -0.193228        -0.981432
 H         3.890914         1.979666        -0.345676
 H         4.082785        -1.177404        -0.014486
