19
Iteration:  3378
 C         4.302212         0.759212         2.698764
 C         3.290388         0.669956         1.538048
 C         1.825201         0.524897         1.902365
 C         1.288521         0.304087         0.420986
 C        -0.177214         0.293220        -0.019736
 O         1.870571         1.531187        -0.184777
 C         3.280708         1.252349         0.083515
 C         3.373612        -0.241172         0.298535
 O         2.096212        -0.805762         0.109424
 H         4.364484         1.783855         2.919601
 H         3.888024         0.165372         3.503848
 H         5.330046         0.477960         2.465439
 H         1.562581        -0.356424         2.456171
 H         1.509273         1.441309         2.366689
 H        -0.180196         0.242266        -1.156727
 H        -0.814759        -0.573583         0.310938
 H        -0.591428         1.280680         0.302512
 H         3.878219         1.849903        -0.534387
 H         4.303483        -0.700728         0.072930
