19
Iteration:  2825
 C         4.274003         0.838874         2.623928
 C         3.211844         0.610718         1.575459
 C         1.755432         0.617025         1.842888
 C         1.302863         0.366945         0.418433
 C        -0.143950         0.261319         0.109662
 O         1.991403         1.469753        -0.220962
 C         3.292310         1.219940         0.161267
 C         3.337816        -0.347566         0.391035
 O         2.074470        -0.772978        -0.033735
 H         4.529021         1.867493         2.860339
 H         4.267565         0.352808         3.575751
 H         5.238375         0.488628         2.215278
 H         1.410448        -0.237033         2.448544
 H         1.369657         1.582845         2.241623
 H        -0.362979        -0.729322        -0.323049
 H        -0.804966         0.448631         0.975032
 H        -0.444289         1.010635        -0.649628
 H         4.025852         1.945591        -0.317631
 H         4.272616        -0.720992         0.142003
