19
Iteration:  2269charge 0 multiplicity 1
 C         4.344184         0.755276         2.623823
 C         3.249806         0.699796         1.562012
 C         1.746733         0.563013         1.867718
 C         1.293091         0.344224         0.422008
 C        -0.149993         0.181634         0.070035
 O         1.986224         1.577905        -0.193123
 C         3.327511         1.304435         0.201176
 C         3.333978        -0.329761         0.283838
 O         2.003136        -0.787882        -0.016003
 H         4.236499         1.761527         3.151898
 H         4.097689        -0.004587         3.304548
 H         5.380947         0.640098         2.238755
 H         1.427884        -0.296172         2.400699
 H         1.404850         1.342108         2.478867
 H        -0.707107         0.624096         0.898359
 H        -0.389240         0.790444        -0.729982
 H        -0.450820        -0.848992        -0.020983
 H         4.130626         1.981889        -0.188509
 H         4.214217        -0.881705         0.008248
