19
Iteration:  1407charge 0 multiplicity 1
 C         4.508323         0.337835         2.644772
 C         3.362493         0.444476         1.581433
 C         1.831605        -0.072649         1.930028
 C         1.250869         0.323087         0.481765
 C        -0.162299         0.228779        -0.024839
 O         1.637294         1.727112         0.196021
 C         3.075186         1.579590         0.493526
 C         3.475380         0.181119         0.066444
 O         2.211751        -0.463675        -0.468809
 H         4.294061         1.015932         3.366827
 H         4.253564        -0.627821         3.098100
 H         5.505507         0.348188         2.092449
 H         1.848396        -1.103829         2.284468
 H         1.405744         0.612081         2.691716
 H        -0.689023         1.195166        -0.146360
 H        -0.263527        -0.390318        -0.856307
 H        -0.959204        -0.226835         0.656282
 H         3.529647         2.629512         0.335536
 H         4.309175         0.056869        -0.668527
