19
Iteration:   646
 C         4.498438        -0.046582         2.285576
 C         3.235183         0.315753         1.560971
 C         1.828770        -0.306202         1.638931
 C         1.338083         0.295347         0.373161
 C        -0.001439        -0.023391         0.032885
 O         1.528796         1.772452         0.628586
 C         2.927719         1.644057         0.877567
 C         3.441040         0.529494         0.091095
 O         2.285068         0.111206        -0.641350
 H         4.562191        -0.004926         3.468418
 H         4.901469        -1.008752         2.077951
 H         5.156660         0.735319         1.947429
 H         2.042289        -1.370492         1.550027
 H         1.303995        -0.091920         2.604744
 H        -0.273033        -1.042114        -0.119994
 H        -0.533274         0.189054         0.974422
 H        -0.414494         0.623839        -0.749374
 H         3.488202         2.521404         1.184241
 H         4.437724         0.426174        -0.482100
