19
Iteration:  3952charge 0 multiplicity 1
 C         4.271520         0.799751         2.614044
 C         3.280798         0.588374         1.505529
 C         1.771269         0.558758         1.905827
 C         1.307133         0.406024         0.491183
 C        -0.236204         0.181808         0.022332
 O         1.964824         1.558779        -0.128548
 C         3.284427         1.210998         0.156337
 C         3.376031        -0.280982         0.290979
 O         2.119648        -0.720525        -0.009975
 H         4.040048         1.836097         2.990581
 H         3.982985         0.066009         3.379207
 H         5.320090         0.578171         2.353366
 H         1.484705        -0.372370         2.392124
 H         1.442874         1.469638         2.408878
 H        -0.254424         0.282243        -1.099032
 H        -0.389110        -0.979368         0.169691
 H        -0.955447         0.798771         0.599368
 H         3.946217         1.978151        -0.240236
 H         4.294307        -0.672118        -0.003921
