19
Iteration:   654
 C         4.520951        -0.029116         2.289675
 C         3.255438         0.284803         1.598876
 C         1.891854        -0.331345         1.638398
 C         1.356763         0.322894         0.313591
 C        -0.074056         0.027906         0.093699
 O         1.485165         1.736955         0.561989
 C         2.918069         1.689927         0.948031
 C         3.414362         0.504005         0.068016
 O         2.324078         0.090940        -0.627013
 H         4.357215         0.112554         3.416723
 H         4.815147        -1.039797         2.013141
 H         5.413751         0.626148         1.998039
 H         1.831723        -1.464796         1.484449
 H         1.360191         0.002308         2.525756
 H        -0.163333        -0.974301        -0.384406
 H        -0.564416         0.022453         1.055595
 H        -0.392176         0.789243        -0.613872
 H         3.456913         2.633261         1.173885
 H         4.444343         0.433565        -0.457651
