19
Iteration:  4191charge 0 multiplicity 1
 C         4.350458         0.755309         2.520646
 C         3.156050         0.593521         1.670400
 C         1.644774         0.523538         1.834276
 C         1.318367         0.411521         0.357454
 C        -0.127908         0.297170         0.155068
 O         1.910499         1.470031        -0.260404
 C         3.200024         1.272387         0.201455
 C         3.399835        -0.201375         0.374764
 O         2.219071        -0.790354        -0.021694
 H         4.256991         1.442270         3.436063
 H         4.628330        -0.285977         2.877620
 H         5.198197         1.168560         1.913241
 H         1.305709        -0.428528         2.348537
 H         1.260544         1.387488         2.485018
 H        -0.333452         0.066336        -0.877692
 H        -0.519256        -0.541804         0.837629
 H        -0.552106         1.233210         0.548684
 H         3.961900         1.974609         0.049615
 H         4.340525        -0.746149         0.087053
