19
Iteration:  4434charge 0 multiplicity 1
 C         4.329471         0.664507         2.659145
 C         3.277969         0.594358         1.541480
 C         1.789320         0.472519         1.957014
 C         1.240153         0.399098         0.559856
 C        -0.191111         0.279565         0.052615
 O         1.817816         1.428666        -0.228796
 C         3.202931         1.345586         0.124540
 C         3.434396        -0.093037         0.207291
 O         2.204193        -0.772174        -0.008305
 H         4.344048         1.702349         2.993461
 H         4.096168         0.149989         3.587930
 H         5.323289         0.329545         2.362245
 H         1.514134        -0.518080         2.457131
 H         1.440405         1.229690         2.734192
 H         0.002292        -0.031900        -1.023147
 H        -0.897721        -0.340189         0.639126
 H        -0.502664         1.356531        -0.106820
 H         3.922053         2.091609        -0.196984
 H         4.326259        -0.456917        -0.311162
