19
Iteration:  3117
 C         4.303720         0.850166         2.544435
 C         3.213839         0.493349         1.621833
 C         1.705990         0.539296         1.897663
 C         1.273355         0.437204         0.413671
 C        -0.145033         0.234030         0.102429
 O         1.986821         1.559106        -0.208526
 C         3.302614         1.229139         0.260505
 C         3.426085        -0.360879         0.340419
 O         2.050219        -0.718164        -0.117275
 H         3.901508         1.545297         3.279516
 H         4.786051         0.064855         3.181406
 H         5.121895         1.391098         2.012594
 H         1.474312        -0.288755         2.539274
 H         1.383350         1.499854         2.264906
 H        -0.406607        -0.589674         0.736260
 H        -0.695716         1.062105         0.413440
 H        -0.221688         0.024040        -0.970799
 H         3.977775         1.965660        -0.045433
 H         4.039272        -1.226355         0.191254
