19
Iteration:   265
 C         4.569126        -0.059733         2.242705
 C         3.373653         0.242892         1.434398
 C         2.032722        -0.560445         1.427157
 C         1.301889         0.279409         0.377126
 C        -0.147647         0.052135        -0.072290
 O         1.456237         1.598226         0.963894
 C         2.833820         1.665264         1.190040
 C         3.391995         0.833203         0.031146
 O         2.298855         0.256630        -0.730633
 H         4.303231        -0.146576         3.334275
 H         5.090526        -1.027353         1.902735
 H         5.289958         0.733272         2.158100
 H         2.265111        -1.552570         1.038622
 H         1.540498        -0.733435         2.349947
 H        -0.272825        -0.364235        -1.084697
 H        -0.588435        -0.632552         0.652056
 H        -0.669881         1.009258        -0.029360
 H         3.288854         2.572810         1.523956
 H         4.311810         1.048886        -0.555557
