19
Iteration:  4174charge 0 multiplicity 1
 C         4.432917         0.718294         2.682104
 C         3.280325         0.630033         1.572381
 C         1.762732         0.596926         1.875391
 C         1.270437         0.421602         0.396143
 C        -0.236508         0.110826         0.049530
 O         1.903251         1.554183        -0.269994
 C         3.286699         1.315532         0.270932
 C         3.378982        -0.238890         0.328279
 O         2.060379        -0.785929        -0.021192
 H         4.144435         1.469614         3.394498
 H         4.683198        -0.255491         3.045257
 H         5.368585         1.116474         2.273342
 H         1.414294        -0.153937         2.551736
 H         1.415262         1.549264         2.177377
 H        -0.378668         0.087279        -1.077950
 H        -0.432574        -0.804344         0.508766
 H        -0.970892         0.822498         0.464748
 H         3.956342         2.039581        -0.273444
 H         4.193256        -0.842157         0.062465
