19
Iteration:  2560charge 0 multiplicity 1
 C         4.352495         0.667118         2.613108
 C         3.209015         0.677302         1.533461
 C         1.689972         0.642926         1.809282
 C         1.262773         0.425117         0.432538
 C        -0.133390         0.245880         0.111247
 O         1.940186         1.502025        -0.292491
 C         3.262580         1.266131         0.139671
 C         3.385904        -0.237792         0.421060
 O         2.151308        -0.803148         0.072836
 H         4.059677         1.216675         3.501224
 H         4.435466        -0.457552         2.995851
 H         5.319318         0.979173         2.216663
 H         1.499551        -0.301615         2.385264
 H         1.274578         1.541769         2.318262
 H        -0.771493        -0.027628         0.956102
 H        -0.593573         1.152908        -0.235599
 H        -0.231640        -0.428569        -0.784743
 H         4.014963         1.903237        -0.428581
 H         4.099309        -1.025577         0.430015
