19
Iteration:  3670charge 0 multiplicity 1
 C         4.377800         0.661206         2.648498
 C         3.160077         0.668872         1.674744
 C         1.633814         0.636377         1.855438
 C         1.318039         0.385717         0.311690
 C        -0.208609         0.173203         0.202496
 O         1.981645         1.446039        -0.344760
 C         3.292052         1.335698         0.232598
 C         3.407255        -0.178336         0.375575
 O         2.139961        -0.762699        -0.067227
 H         4.597097         1.491635         3.374402
 H         4.604585        -0.296237         3.138529
 H         5.282875         0.812337         1.990036
 H         1.174764        -0.284595         2.301410
 H         1.183779         1.573910         2.237698
 H        -0.616118        -0.022213        -0.793388
 H        -0.506937        -0.718373         0.669782
 H        -0.700751         1.039480         0.543480
 H         4.053912         2.116796        -0.036751
 H         4.137927        -0.866303         0.114342
