19
Iteration:    15
 C         4.705172        -0.188558         2.168758
 C         3.335762         0.196158         1.492729
 C         2.077312        -0.741427         1.219890
 C         1.290561         0.293622         0.385540
 C        -0.110443        -0.050103        -0.006616
 O         1.373849         1.580806         0.993464
 C         2.771897         1.606980         1.359835
 C         3.382258         1.035531         0.053316
 O         2.289110         0.554426        -0.748218
 H         4.768816        -0.333178         3.237341
 H         4.993638        -1.263506         1.679709
 H         5.403719         0.563200         1.886064
 H         2.423667        -1.460609         0.383279
 H         1.555874        -1.156320         2.068666
 H        -0.473274        -0.717516         0.727519
 H        -0.757097         0.821725        -0.029772
 H        -0.157289        -0.474368        -0.981040
 H         3.037853         2.313381         2.120256
 H         4.070012         1.745229        -0.506599
