19
Iteration:   678
 C         4.491146        -0.020956         2.427722
 C         3.340666         0.341154         1.515622
 C         1.926179        -0.343194         1.618414
 C         1.229131         0.282238         0.426096
 C        -0.250384         0.110248         0.018580
 O         1.534135         1.708655         0.657051
 C         2.943418         1.674033         0.872822
 C         3.465871         0.611355        -0.041258
 O         2.381164        -0.062391        -0.660817
 H         4.325948         0.431318         3.537251
 H         4.781934        -1.040609         2.355564
 H         5.381095         0.498603         2.055647
 H         2.185447        -1.396827         1.412277
 H         1.627641        -0.279393         2.690534
 H        -0.349211        -0.418630        -0.923209
 H        -0.663054        -0.445328         0.857300
 H        -0.676655         1.116629        -0.067177
 H         3.425292         2.578753         1.216605
 H         4.474175         0.765144        -0.557457
