19
Iteration:  3257
 C         4.262616         0.876201         2.587239
 C         3.278997         0.647315         1.596683
 C         1.735369         0.476178         1.867927
 C         1.310213         0.300114         0.400147
 C        -0.212156         0.275290         0.019280
 O         1.997754         1.514988        -0.224480
 C         3.299151         1.267949         0.260591
 C         3.350436        -0.258105         0.367954
 O         2.097570        -0.801489         0.019918
 H         4.202922         1.783568         3.134763
 H         4.255657        -0.014832         3.241832
 H         5.195453         0.859228         1.994833
 H         1.568312        -0.404583         2.443832
 H         1.508349         1.380504         2.354447
 H        -0.587923        -0.015936        -0.976022
 H        -0.769639        -0.205657         0.789816
 H        -0.417469         1.389774         0.218743
 H         4.038392         1.732879        -0.489613
 H         4.107576        -0.971875        -0.067887
