19
Iteration:  2256charge 0 multiplicity 1
 C         4.257845         0.674050         2.566895
 C         3.248470         0.687305         1.547623
 C         1.778984         0.576417         1.860464
 C         1.307060         0.396628         0.399592
 C        -0.207235         0.272681         0.103574
 O         1.931267         1.502379        -0.180223
 C         3.252422         1.225533         0.146951
 C         3.413814        -0.218495         0.409269
 O         2.137497        -0.760812         0.000974
 H         4.284939         1.498999         3.308670
 H         4.210791        -0.274871         3.123743
 H         5.241584         0.631355         2.097941
 H         1.738415        -0.308153         2.513504
 H         1.231447         1.456103         2.177904
 H        -0.870829         0.815701         0.828771
 H        -0.508056         0.621233        -0.930278
 H        -0.351018        -0.817444         0.117420
 H         4.008068         1.964330        -0.317617
 H         4.219312        -0.847394         0.102808
