19
Iteration:  2882
 C         4.304319         0.734158         2.616513
 C         3.190216         0.690201         1.491804
 C         1.775188         0.661395         1.965188
 C         1.350168         0.398210         0.482374
 C        -0.097781         0.203124         0.041105
 O         1.931246         1.557311        -0.255784
 C         3.287621         1.244774         0.131808
 C         3.336072        -0.354011         0.366449
 O         2.067941        -0.796416         0.029864
 H         4.219895         1.771932         3.085420
 H         3.908394        -0.042459         3.273537
 H         5.273363         0.430130         2.162225
 H         1.584922        -0.240753         2.568278
 H         1.292579         1.599323         2.294199
 H        -0.282887        -0.896429        -0.092365
 H        -0.855922         0.437880         0.759501
 H        -0.286831         0.702149        -0.960854
 H         3.995141         1.968308        -0.261332
 H         4.335048        -0.864837         0.209717
