19
Iteration:  4385
 C         4.316136         0.896976         2.539650
 C         3.159659         0.517997         1.640911
 C         1.706888         0.410808         1.957090
 C         1.314539         0.420918         0.423983
 C        -0.159549         0.216551         0.139351
 O         2.004283         1.553770        -0.190455
 C         3.259544         1.235763         0.242366
 C         3.410510        -0.276854         0.239461
 O         2.087021        -0.693616        -0.142641
 H         4.034208         1.646665         3.324915
 H         4.766879         0.003521         3.046944
 H         5.192750         1.327670         2.008374
 H         1.225611        -0.337906         2.560927
 H         1.365248         1.349210         2.383713
 H        -0.310371         0.024749        -0.929076
 H        -0.310673        -0.751691         0.723997
 H        -0.889383         0.968239         0.561346
 H         4.138900         1.917694        -0.029894
 H         4.153634        -1.003264         0.044839
