19
Iteration:  2147charge 0 multiplicity 1
 C         4.356202         0.822782         2.621441
 C         3.255241         0.542278         1.582328
 C         1.763945         0.336030         1.946540
 C         1.293096         0.335284         0.414957
 C        -0.214834         0.395227         0.035073
 O         1.851607         1.537895        -0.120435
 C         3.234143         1.234362         0.159287
 C         3.418547        -0.230721         0.278545
 O         2.187537        -0.758684        -0.088519
 H         4.362930         1.911741         2.874086
 H         4.225519         0.184700         3.524007
 H         5.289788         0.555607         2.121909
 H         1.365279        -0.456978         2.548360
 H         1.360954         1.252069         2.322046
 H        -0.361259         1.097105        -0.769772
 H        -0.719206        -0.545432         0.049309
 H        -0.710728         1.010130         0.759805
 H         3.886182         2.051974         0.096603
 H         4.320236        -0.787063        -0.077269
