19
Iteration:   875
 C         4.391839         0.257100         2.501960
 C         3.257786         0.253206         1.481626
 C         1.927327        -0.459613         1.604627
 C         1.364418         0.264961         0.455469
 C        -0.173231         0.207812         0.158296
 O         1.600035         1.715571         0.530836
 C         2.993204         1.629114         0.749098
 C         3.504352         0.500159        -0.021408
 O         2.286208        -0.092443        -0.650301
 H         4.260726         0.710521         3.559966
 H         4.504492        -0.775844         2.783400
 H         5.308881         0.573075         2.043046
 H         1.936927        -1.541863         1.624988
 H         1.326688        -0.042773         2.474899
 H        -0.404036        -0.765218        -0.326897
 H        -0.789620         0.152031         1.083622
 H        -0.489955         1.028512        -0.495069
 H         3.376012         2.627960         1.045563
 H         4.517741         0.236015        -0.471990
