19
Iteration:  4344
 C         4.318976         0.734817         2.675448
 C         3.284910         0.695163         1.530765
 C         1.775066         0.506269         1.941789
 C         1.283060         0.222244         0.490615
 C        -0.143812         0.237151         0.045112
 O         1.891977         1.615543        -0.160695
 C         3.242748         1.238142         0.059804
 C         3.370355        -0.227555         0.286660
 O         2.101005        -0.740500        -0.011183
 H         3.910505         1.338001         3.457203
 H         4.572047        -0.204248         3.140048
 H         5.191127         1.168715         2.226180
 H         1.640990        -0.301781         2.709303
 H         1.374019         1.567975         2.193050
 H        -0.173190         0.617999        -1.032575
 H        -0.245349        -0.837116        -0.036785
 H        -0.885499         0.811128         0.640499
 H         3.950147         1.914549        -0.471308
 H         4.120173        -0.976865         0.130032
