19
Iteration:  2760charge 0 multiplicity 1
 C         4.354803         0.856002         2.665045
 C         3.210860         0.633549         1.581666
 C         1.678528         0.570367         1.940656
 C         1.288573         0.365484         0.481914
 C        -0.111346         0.368507         0.068793
 O         1.955521         1.427422        -0.293525
 C         3.217093         1.198822         0.092263
 C         3.379220        -0.293175         0.367600
 O         2.139657        -0.838301        -0.001921
 H         4.073087         1.584159         3.432079
 H         4.720919        -0.089858         3.019164
 H         5.121569         1.124200         1.911336
 H         1.306755        -0.268105         2.524821
 H         1.260674         1.545050         2.203252
 H        -0.496190        -0.548729        -0.344379
 H        -0.827665         0.860037         0.758054
 H        -0.120324         1.102000        -0.724349
 H         3.986934         1.916385        -0.209131
 H         4.160374        -1.083526         0.347376
