19
Iteration:  3153
 C         4.355638         0.721731         2.655183
 C         3.261234         0.659144         1.565761
 C         1.708163         0.551365         1.921284
 C         1.334483         0.344950         0.426923
 C        -0.187510         0.271795         0.075975
 O         1.945858         1.466746        -0.317963
 C         3.267751         1.292739         0.228996
 C         3.381150        -0.240782         0.337400
 O         2.089052        -0.759567        -0.012312
 H         4.177181         1.590386         3.297876
 H         4.516741        -0.235057         3.087386
 H         5.257270         0.978611         2.105371
 H         1.534077        -0.307852         2.649141
 H         1.302836         1.433793         2.523597
 H        -0.604774        -0.732263        -0.189735
 H        -0.955153         0.770604         0.718884
 H        -0.437965         0.751048        -0.878164
 H         3.903669         2.141971        -0.242966
 H         4.219415        -0.948484         0.237773
