19
Iteration:  2786
 C         4.325074         0.934497         2.661469
 C         3.352676         0.564663         1.600774
 C         1.870079         0.567246         1.876851
 C         1.255231         0.381998         0.405501
 C        -0.254773         0.267995        -0.032979
 O         2.049628         1.512899        -0.220673
 C         3.279095         1.204864         0.204193
 C         3.332033        -0.301918         0.382653
 O         1.963193        -0.828469         0.039393
 H         3.782730         1.838642         3.037135
 H         4.535852         0.120117         3.382567
 H         5.202255         1.082951         2.004774
 H         1.663586        -0.383458         2.371516
 H         1.406809         1.448580         2.308952
 H        -0.347425        -0.767932        -0.424411
 H        -0.974378         0.438265         0.731060
 H        -0.526140         1.046439        -0.818995
 H         4.128770         1.803253        -0.158219
 H         3.933015        -1.042305        -0.142998
