19
Iteration:  4771charge 0 multiplicity 1
 C         4.271130         0.611902         2.629587
 C         3.278328         0.767077         1.532405
 C         1.841257         0.551940         1.903144
 C         1.281763         0.351945         0.489146
 C        -0.114412         0.273137         0.049432
 O         1.839789         1.475744        -0.216931
 C         3.174591         1.305497         0.140812
 C         3.381428        -0.146562         0.291905
 O         2.189607        -0.833260         0.012380
 H         3.985374         1.194814         3.551523
 H         4.414119        -0.479327         2.884901
 H         5.288296         1.030409         2.322302
 H         1.501485        -0.330508         2.436505
 H         1.329500         1.417455         2.285718
 H        -0.425750         0.535157        -0.955528
 H        -0.501368        -0.816653         0.250931
 H        -0.704712         1.018880         0.628417
 H         3.811333         2.167224        -0.179611
 H         4.383842        -0.626138         0.174772
