19
Iteration:  3056
 C         4.282587         0.689910         2.628114
 C         3.159303         0.687120         1.589784
 C         1.804965         0.525479         1.906688
 C         1.283153         0.304228         0.476020
 C        -0.179475         0.306198         0.036066
 O         1.924230         1.468414        -0.203563
 C         3.256448         1.330296         0.166182
 C         3.458117        -0.202774         0.298875
 O         2.131587        -0.794691        -0.015870
 H         4.561964         1.731471         2.954457
 H         3.996588         0.060373         3.462651
 H         5.113086         0.254605         2.078666
 H         1.489352        -0.273686         2.641541
 H         1.275402         1.454502         2.292953
 H        -0.762583         0.117912         0.990554
 H        -0.374254         1.331357        -0.480810
 H        -0.376262        -0.577182        -0.622721
 H         3.982734         2.024772        -0.303764
 H         4.340453        -0.621203        -0.155473
