19
Iteration:  3656
 C         4.477692         0.687281         2.605009
 C         3.137176         0.689710         1.756453
 C         1.590352         0.646788         1.828160
 C         1.330149         0.291637         0.297065
 C        -0.154200         0.144919         0.170131
 O         1.964836         1.555507        -0.274461
 C         3.275913         1.234765         0.207555
 C         3.357886        -0.222415         0.395632
 O         2.134241        -0.728742        -0.123993
 H         4.167235         1.362699         3.425106
 H         4.480237        -0.282420         3.122705
 H         5.362006         0.881860         1.996488
 H         1.326814        -0.139266         2.581765
 H         0.928636         1.498542         1.998815
 H        -0.547451        -0.139304        -0.909313
 H        -0.380287        -0.398613         1.085837
 H        -0.592749         1.185106         0.511795
 H         4.065957         1.828434        -0.260495
 H         4.346738        -0.724209         0.260979
