19
Iteration:  4658
 C         4.365535         0.728421         2.664137
 C         3.347513         0.689964         1.565100
 C         1.755211         0.463291         1.932118
 C         1.325122         0.284771         0.512662
 C        -0.199137         0.254788         0.011481
 O         1.791140         1.489097        -0.093128
 C         3.196932         1.367789         0.139185
 C         3.378155        -0.137714         0.203084
 O         2.147820        -0.760831        -0.059138
 H         4.682137         1.687009         3.156912
 H         3.914886        -0.043134         3.364174
 H         5.248204         0.137298         2.325525
 H         1.813516        -0.557507         2.366537
 H         1.293652         1.277787         2.527977
 H         0.079613        -0.067301        -1.126259
 H        -0.884440        -0.385242         0.520605
 H        -0.364974         1.361514         0.060469
 H         3.956854         1.944921        -0.501935
 H         4.119901        -0.847529        -0.020772
