19
Iteration:   501charge 0 multiplicity 1
 C         4.477351        -0.125454         2.371047
 C         3.367428         0.305473         1.380546
 C         1.966324        -0.352181         1.604974
 C         1.274035         0.290810         0.422602
 C        -0.060265        -0.003546        -0.112964
 O         1.535469         1.698505         0.942655
 C         2.896861         1.742021         0.904914
 C         3.406519         0.697832        -0.056656
 O         2.252242         0.085653        -0.624987
 H         4.230260        -0.049625         3.478470
 H         4.844141        -1.136058         2.241004
 H         5.398577         0.513058         2.206540
 H         1.946947        -1.496669         1.490035
 H         1.536237        -0.266954         2.590728
 H        -0.138850         0.388212        -1.128934
 H        -0.143062        -1.093965        -0.100248
 H        -0.931077         0.342925         0.427003
 H         3.443778         2.687095         0.862944
 H         4.179476         0.923503        -0.737180
