19
Iteration:   488charge 0 multiplicity 1
 C         4.514559        -0.175815         2.356630
 C         3.373683         0.322049         1.513010
 C         2.021486        -0.460215         1.599573
 C         1.328097         0.338943         0.493792
 C        -0.068700         0.005763        -0.092592
 O         1.448671         1.690970         0.771784
 C         2.904603         1.725834         0.895902
 C         3.378018         0.709299        -0.045445
 O         2.225393         0.156273        -0.612832
 H         4.272905        -0.141075         3.419647
 H         4.755765        -1.262939         1.991350
 H         5.418003         0.529797         2.177713
 H         2.214575        -1.562595         1.501796
 H         1.587102         0.034831         2.501163
 H         0.115401        -0.035441        -1.174854
 H        -0.419525        -1.011138         0.194774
 H        -0.733054         0.809694         0.260912
 H         3.175503         2.741906         1.211321
 H         4.312159         0.768796        -0.693641
