19
Iteration:  4903
 C         4.315175         0.830010         2.577385
 C         3.224564         0.593869         1.547009
 C         1.722883         0.519443         1.926309
 C         1.310577         0.332992         0.403697
 C        -0.138851         0.201146         0.158919
 O         1.982983         1.567515        -0.202460
 C         3.259281         1.258521         0.244776
 C         3.322633        -0.240553         0.329205
 O         2.107875        -0.748026        -0.144611
 H         4.179747         1.814643         3.073710
 H         4.349243         0.033255         3.343319
 H         5.297147         0.890627         2.052142
 H         1.620163        -0.340322         2.520057
 H         1.212989         1.323377         2.390638
 H        -0.349497         0.189695        -0.908494
 H        -0.577801        -0.773053         0.559347
 H        -0.629068         0.992046         0.737042
 H         4.090814         1.802002        -0.097006
 H         4.078449        -1.014942         0.193678
