19
Iteration:    63charge 0 multiplicity 1
 C         4.540853        -0.172304         2.223580
 C         3.366139         0.212860         1.403144
 C         2.117973        -0.655127         1.345496
 C         1.346533         0.271232         0.400727
 C         0.000138        -0.058173        -0.088823
 O         1.436141         1.513729         1.143103
 C         2.833284         1.580702         1.247022
 C         3.293662         1.077285        -0.067029
 O         2.193894         0.521787        -0.762198
 H         4.347084        -0.252536         3.350092
 H         4.773776        -1.187161         1.953749
 H         5.442945         0.524691         2.092352
 H         2.279640        -1.641690         0.973133
 H         1.526196        -0.527888         2.308777
 H         0.182825        -0.657779        -1.043785
 H        -0.725351        -0.601997         0.546113
 H        -0.424952         0.961196        -0.351850
 H         3.234622         2.508746         1.654043
 H         4.202835         1.252752        -0.556118
