19
Iteration:   694
 C         4.407046         0.093895         2.466470
 C         3.362086         0.327118         1.476328
 C         2.023761        -0.447663         1.589197
 C         1.350661         0.317615         0.432362
 C        -0.098076         0.140754         0.018412
 O         1.513334         1.681808         0.761232
 C         2.961541         1.670577         0.813320
 C         3.435165         0.523671        -0.079285
 O         2.232483        -0.007045        -0.620294
 H         4.166816         0.421200         3.433433
 H         4.480004        -1.023295         2.661898
 H         5.388448         0.557751         2.242430
 H         2.115661        -1.537398         1.425951
 H         1.371816        -0.177170         2.438607
 H        -0.259853        -0.037745        -1.084678
 H        -0.736653        -0.704189         0.379776
 H        -0.582906         1.124538         0.186875
 H         3.474489         2.643442         0.805432
 H         4.255996         0.434676        -0.765169
