19
Iteration:   890charge 0 multiplicity 1
 C         4.388257         0.198575         2.534060
 C         3.333303         0.378759         1.514574
 C         1.973498        -0.357426         1.719644
 C         1.271399         0.251837         0.357966
 C        -0.155513         0.191633         0.092709
 O         1.571792         1.616813         0.609288
 C         2.980064         1.633499         0.693022
 C         3.470171         0.364008        -0.026254
 O         2.300828        -0.037587        -0.669844
 H         4.052593         0.877776         3.294811
 H         4.602795        -0.826436         2.873115
 H         5.368631         0.547587         2.207494
 H         2.069386        -1.457575         1.525206
 H         1.503535        -0.221024         2.683530
 H        -0.517434        -0.319853        -0.809698
 H        -0.693560        -0.041864         1.007067
 H        -0.386906         1.260086        -0.022299
 H         3.548084         2.526681         0.837400
 H         4.270795         0.456835        -0.686528
