19
Iteration:  3048
 C         4.302054         0.681843         2.665413
 C         3.219862         0.689421         1.605730
 C         1.734932         0.567795         1.945097
 C         1.343036         0.310151         0.457421
 C        -0.176095         0.264656         0.061725
 O         1.912424         1.431178        -0.275238
 C         3.245475         1.293982         0.215487
 C         3.423219        -0.197992         0.244012
 O         2.107867        -0.715414        -0.050567
 H         4.742484         1.686785         2.976762
 H         4.256876         0.080131         3.618280
 H         5.179244         0.222111         2.132073
 H         1.499575        -0.333569         2.494024
 H         1.339261         1.523405         2.243741
 H        -0.865005         0.178038         0.903693
 H        -0.735247         1.117427        -0.440043
 H        -0.340681        -0.590217        -0.549598
 H         4.050033         2.103629        -0.020518
 H         4.357542        -0.787518         0.078082
