19
Iteration:  4521
 C         4.290199         0.775538         2.631559
 C         3.232504         0.653836         1.558039
 C         1.774690         0.399170         1.879505
 C         1.263786         0.377793         0.460608
 C        -0.158512         0.293345         0.054585
 O         1.876972         1.499521        -0.141344
 C         3.228806         1.287449         0.184969
 C         3.450823        -0.182667         0.221477
 O         2.144359        -0.788206        -0.010673
 H         4.229476         1.624856         3.307127
 H         4.463563        -0.152963         3.154926
 H         5.188168         1.000453         2.048501
 H         1.695605        -0.545350         2.514748
 H         1.477862         1.366988         2.397812
 H        -0.329187         0.659212        -0.994302
 H        -0.760825        -0.638427         0.190869
 H        -0.654988         0.980520         0.812165
 H         4.021234         1.860652        -0.380389
 H         4.258038        -0.820808         0.059010
