19
Iteration:  3218
 C         4.304907         0.785025         2.599053
 C         3.170111         0.554410         1.615124
 C         1.765740         0.608513         1.924853
 C         1.254073         0.443977         0.404462
 C        -0.183839         0.108688         0.116599
 O         1.998306         1.530925        -0.257470
 C         3.287588         1.271942         0.245000
 C         3.360607        -0.323080         0.376042
 O         2.117681        -0.675308        -0.132480
 H         4.490014         1.873728         2.810929
 H         4.230488         0.231066         3.577012
 H         5.298813         0.439486         2.240182
 H         1.278199        -0.143188         2.604816
 H         1.395673         1.623980         2.296620
 H        -0.275317        -0.791550        -0.530194
 H        -0.774550        -0.076803         1.051569
 H        -0.571751         0.944261        -0.416525
 H         4.215232         1.609421        -0.242288
 H         4.266628        -0.818984         0.034799
