19
Iteration:  4356charge 0 multiplicity 1
 C         4.355094         0.843259         2.675956
 C         3.318971         0.509620         1.575833
 C         1.837099         0.503915         1.859405
 C         1.265986         0.383379         0.487984
 C        -0.160083         0.101941         0.034685
 O         1.951023         1.613429        -0.164235
 C         3.245542         1.303549         0.154594
 C         3.346011        -0.264368         0.290801
 O         1.991252        -0.722537        -0.041170
 H         3.899983         1.451399         3.432432
 H         4.705110        -0.079327         3.106962
 H         5.237497         1.425073         2.433735
 H         1.327572        -0.236024         2.521366
 H         1.554413         1.536340         2.320601
 H        -0.147768         0.463425        -1.058555
 H        -0.550093        -0.885427         0.046886
 H        -0.947121         0.647822         0.596354
 H         4.098175         1.699604        -0.346513
 H         4.160791        -0.878955        -0.150124
