19
Iteration:  4960
 C         4.296418         0.654472         2.653860
 C         3.311696         0.766745         1.497898
 C         1.754611         0.595348         1.859109
 C         1.255305         0.356563         0.477102
 C        -0.112769         0.199185         0.067142
 O         1.867875         1.430334        -0.222444
 C         3.232763         1.338974         0.148219
 C         3.381443        -0.224434         0.322271
 O         2.098339        -0.758064         0.052691
 H         4.114882         1.200258         3.624188
 H         4.528985        -0.434641         2.762480
 H         5.257836         1.018359         2.211177
 H         1.650783        -0.164653         2.586253
 H         1.397592         1.511597         2.258069
 H        -0.143792         0.454541        -1.050947
 H        -0.377059        -0.769757         0.321237
 H        -0.684503         1.031757         0.534449
 H         3.990968         1.991139        -0.345418
 H         4.285229        -0.865480         0.075110
