19
Iteration:  1004charge 0 multiplicity 1
 C         4.388441         0.120863         2.529394
 C         3.307335         0.472131         1.515898
 C         1.939633        -0.265491         1.793343
 C         1.356666         0.329549         0.447548
 C        -0.072714         0.124763         0.023880
 O         1.563921         1.745367         0.486915
 C         2.997517         1.609786         0.710666
 C         3.438773         0.368762        -0.123267
 O         2.207253        -0.186783        -0.541739
 H         4.115247         0.477110         3.457949
 H         4.646666        -0.934395         2.449484
 H         5.351866         0.650724         2.377912
 H         2.133194        -1.309427         1.736477
 H         1.471999         0.046374         2.730842
 H        -0.614046         0.797023         0.699274
 H        -0.200330         0.465797        -1.015935
 H        -0.387642        -0.897394         0.108574
 H         3.396358         2.611192         0.630774
 H         4.389152         0.037479        -0.496127
