19
Iteration:  2352
 C         4.357170         0.758667         2.613092
 C         3.246152         0.627281         1.583314
 C         1.797564         0.531112         1.936313
 C         1.291883         0.409109         0.396501
 C        -0.275236         0.367390         0.087916
 O         1.915575         1.397122        -0.304447
 C         3.244371         1.292545         0.200069
 C         3.390019        -0.274686         0.357095
 O         2.146619        -0.768124        -0.011600
 H         4.220297         1.624152         3.224948
 H         4.371652        -0.077811         3.385820
 H         5.383054         0.809888         2.274801
 H         1.624603        -0.506240         2.336994
 H         1.310455         1.426169         2.369414
 H        -0.757802        -0.116012         0.950477
 H        -0.704072         1.312313        -0.341254
 H        -0.279131        -0.280783        -0.791981
 H         3.924608         2.095744        -0.222722
 H         4.208578        -0.920126         0.340376
