19
Iteration:  3222
 C         4.325355         0.810770         2.611710
 C         3.157394         0.524697         1.649656
 C         1.734010         0.598448         1.926423
 C         1.263464         0.511269         0.414534
 C        -0.154607         0.100561         0.124839
 O         1.968830         1.495236        -0.273350
 C         3.309757         1.279846         0.234226
 C         3.359229        -0.325392         0.374934
 O         2.141135        -0.678677        -0.154785
 H         4.470571         1.851922         2.840068
 H         4.252055         0.264774         3.499944
 H         5.221252         0.430137         2.169388
 H         1.228261        -0.154701         2.527886
 H         1.439996         1.559209         2.350403
 H        -0.324288        -0.723768        -0.547824
 H        -0.732963        -0.019636         1.063770
 H        -0.624497         1.008876        -0.331144
 H         4.151053         1.685871        -0.240095
 H         4.145554        -0.995731         0.043038
