19
Iteration:  2462charge 0 multiplicity 1
 C         4.351208         0.938990         2.607276
 C         3.214082         0.589399         1.604340
 C         1.784887         0.507478         1.936132
 C         1.243382         0.341668         0.391577
 C        -0.208089         0.356498         0.008725
 O         2.004015         1.462818        -0.185048
 C         3.276573         1.143013         0.136664
 C         3.381968        -0.316154         0.395386
 O         2.073374        -0.767612        -0.057396
 H         4.309091         2.007481         2.809126
 H         4.171513         0.321494         3.572003
 H         5.299782         0.658549         2.113806
 H         1.531990        -0.346912         2.607996
 H         1.377468         1.445267         2.376872
 H        -0.700713        -0.643871        -0.073294
 H        -0.734131         0.711734         0.860501
 H        -0.452787         1.022495        -0.859307
 H         3.986831         1.836989        -0.215620
 H         4.366272        -0.903195         0.288945
