19
Iteration:  4077charge 0 multiplicity 1
 C         4.294912         0.904177         2.522258
 C         3.143259         0.583273         1.592815
 C         1.738257         0.420745         1.840455
 C         1.333366         0.344474         0.339694
 C        -0.124177         0.313568         0.129715
 O         1.938286         1.559789        -0.138716
 C         3.227932         1.251198         0.319005
 C         3.427542        -0.294780         0.351949
 O         2.129331        -0.795863        -0.085513
 H         4.309719         1.944486         2.773147
 H         4.398628         0.259877         3.391465
 H         5.183002         0.758576         1.913394
 H         1.411936        -0.514201         2.329219
 H         1.195951         1.222567         2.317278
 H        -0.321522         0.083211        -0.960856
 H        -0.547920        -0.429669         0.736302
 H        -0.545156         1.273169         0.490663
 H         4.044558         1.874905        -0.056420
 H         4.216048        -0.998068         0.069544
