19
Iteration:  4026charge 0 multiplicity 1
 C         4.348673         0.749173         2.683188
 C         3.329779         0.720375         1.525142
 C         1.816821         0.512759         1.884441
 C         1.291738         0.322194         0.440310
 C        -0.079865         0.192514        -0.003891
 O         1.863164         1.572153        -0.142420
 C         3.269998         1.245830         0.144980
 C         3.290064        -0.220520         0.367247
 O         2.033360        -0.780611        -0.068386
 H         3.921826         1.377605         3.539613
 H         4.274579        -0.269573         3.135865
 H         5.339275         1.118789         2.376244
 H         1.636056        -0.314942         2.657680
 H         1.312878         1.410730         2.333560
 H         0.053895        -0.309072        -0.983959
 H        -0.716062        -0.351536         0.684680
 H        -0.442872         1.212841         0.037390
 H         3.923576         1.981367        -0.365427
 H         4.063489        -0.815786         0.024159
