19
Iteration:  3364charge 0 multiplicity 1
 C         4.294954         0.742760         2.625658
 C         3.276412         0.580442         1.548968
 C         1.717397         0.612697         1.851772
 C         1.262420         0.408792         0.478238
 C        -0.234373         0.232575         0.048246
 O         1.945310         1.469829        -0.304975
 C         3.248196         1.283750         0.210706
 C         3.450924        -0.234132         0.312224
 O         2.154977        -0.771541         0.068980
 H         4.482395         1.750966         3.107613
 H         4.127034         0.013023         3.412735
 H         5.290989         0.429212         2.289431
 H         1.479908        -0.144280         2.651372
 H         1.324072         1.553364         2.313881
 H        -0.355863         0.321315        -1.056492
 H        -0.575238        -0.742802         0.336599
 H        -0.915123         1.055792         0.506478
 H         4.121453         1.999274        -0.011720
 H         4.146856        -0.961132        -0.120123
