19
Iteration:   238
 C         4.530611         0.023693         2.228693
 C         3.278838         0.170060         1.451220
 C         2.042541        -0.691145         1.312517
 C         1.333187         0.277056         0.376822
 C        -0.059437         0.042417         0.076482
 O         1.438112         1.645875         0.898085
 C         2.781504         1.627269         1.172019
 C         3.441340         0.752271         0.108548
 O         2.313196         0.431548        -0.764589
 H         4.309848         0.139142         3.314240
 H         4.946237        -0.919406         1.951574
 H         5.412222         0.715752         1.968555
 H         2.199435        -1.718650         0.935841
 H         1.381416        -0.935279         2.227721
 H        -0.237787        -0.993081        -0.251183
 H        -0.632679         0.201280         1.028577
 H        -0.460689         0.745065        -0.678294
 H         3.356088         2.497006         1.572449
 H         4.427913         0.634945        -0.339968
