19
Iteration:  2030charge 0 multiplicity 1
 C         4.444586         0.637322         2.688794
 C         3.218017         0.590552         1.644570
 C         1.778177         0.331715         1.893819
 C         1.328143         0.340399         0.402469
 C        -0.146073         0.384033         0.073500
 O         1.814542         1.537632        -0.195320
 C         3.121352         1.369468         0.240586
 C         3.427478        -0.128050         0.215611
 O         2.136804        -0.750349        -0.094488
 H         4.168271         1.270230         3.543759
 H         4.694525        -0.313249         2.955024
 H         5.305200         1.113553         2.210354
 H         1.547432        -0.640703         2.361462
 H         1.250904         1.075683         2.493323
 H        -0.795564        -0.265819         0.693771
 H        -0.335443         1.410938         0.215911
 H        -0.306187         0.052882        -0.932005
 H         3.802413         2.104009        -0.154235
 H         4.303164        -0.736610        -0.098839
