19
Iteration:  4546charge 0 multiplicity 1
 C         4.388886         0.779270         2.689632
 C         3.312573         0.675296         1.523383
 C         1.858252         0.438608         1.958871
 C         1.242708         0.369119         0.512604
 C        -0.161691         0.363494        -0.004459
 O         1.822044         1.466180        -0.188040
 C         3.156057         1.343428         0.170442
 C         3.388156        -0.257380         0.273708
 O         2.120406        -0.849797        -0.078958
 H         3.807389         1.370664         3.421154
 H         4.763372        -0.140861         3.152598
 H         5.234944         1.449275         2.480816
 H         1.963109        -0.562141         2.510819
 H         1.335531         1.247498         2.543216
 H        -0.016893         0.772484        -0.963550
 H        -0.773264        -0.613346        -0.089409
 H        -0.841265         1.001025         0.608366
 H         3.867966         1.976244        -0.293428
 H         4.277030        -0.938285        -0.025048
