19
Iteration:  2538charge 0 multiplicity 1
 C         4.330987         0.703041         2.634366
 C         3.207623         0.644313         1.620842
 C         1.768878         0.632081         1.943702
 C         1.313671         0.352888         0.397629
 C        -0.152422         0.283951         0.067482
 O         1.935260         1.436975        -0.380328
 C         3.226751         1.281736         0.169185
 C         3.403284        -0.184954         0.371309
 O         2.111422        -0.813292         0.063348
 H         4.299695         1.487786         3.400000
 H         4.236842        -0.365056         3.099880
 H         5.232599         0.680941         2.005826
 H         1.267466        -0.178043         2.528572
 H         1.385286         1.644232         2.209751
 H        -0.709872        -0.236069         0.899094
 H        -0.537188         1.281946         0.123365
 H        -0.477507        -0.081406        -0.958804
 H         4.066833         1.974025        -0.054764
 H         4.226050        -0.776251        -0.071279
