19
Iteration:  1827charge 0 multiplicity 1
 C         4.381042         0.617866         2.680138
 C         3.258935         0.599049         1.496002
 C         1.809258         0.147194         1.819644
 C         1.288479         0.273660         0.423515
 C        -0.142478         0.376679         0.085819
 O         1.842579         1.612105         0.030591
 C         3.122907         1.433642         0.324347
 C         3.409209        -0.068373         0.178099
 O         2.143390        -0.665808        -0.187373
 H         4.037575         0.975373         3.587517
 H         4.649446        -0.443569         2.894513
 H         5.249667         1.012656         2.199122
 H         1.865716        -0.861247         2.170797
 H         1.244339         0.803173         2.459988
 H        -0.359880        -0.506943        -0.570366
 H        -0.734240         0.097251         0.888717
 H        -0.361297         1.342340        -0.404109
 H         3.689296         2.368265        -0.008145
 H         4.332746        -0.504035        -0.232378
