19
Iteration:   156
 C         4.635886        -0.187244         2.216211
 C         3.351873         0.229852         1.455660
 C         2.030366        -0.598745         1.408563
 C         1.259763         0.342497         0.422591
 C        -0.224240        -0.080964        -0.045482
 O         1.416484         1.595539         1.007461
 C         2.859208         1.720875         1.177732
 C         3.414653         0.902127         0.066265
 O         2.381138         0.384463        -0.815581
 H         4.410402        -0.191425         3.236895
 H         5.020870        -1.210436         2.083328
 H         5.337836         0.559984         2.092502
 H         2.231041        -1.516781         0.812559
 H         1.528855        -0.653554         2.319885
 H        -0.951084         0.163963         0.703394
 H        -0.516162         0.437810        -0.948247
 H        -0.210019        -1.146404        -0.274564
 H         3.087434         2.757690         1.545496
 H         4.278808         1.201637        -0.473427
