19
Iteration:  4676charge 0 multiplicity 1
 C         4.414627         0.749034         2.609106
 C         3.200699         0.585498         1.584661
 C         1.797426         0.395353         1.926004
 C         1.289270         0.365469         0.475506
 C        -0.150535         0.202309         0.015712
 O         1.877110         1.568918        -0.170915
 C         3.208426         1.311649         0.226524
 C         3.398512        -0.194251         0.318270
 O         2.079413        -0.705625        -0.107157
 H         4.485635         1.812491         2.768692
 H         4.275844         0.373749         3.595073
 H         5.364510         0.452954         2.207520
 H         1.533857        -0.558039         2.452537
 H         1.335780         1.313168         2.328428
 H        -0.460672        -0.046152        -0.927793
 H        -0.519484        -0.639890         0.663924
 H        -0.642226         1.147534         0.218586
 H         4.037369         2.031402        -0.033173
 H         4.299904        -0.707578        -0.129066
