19
Iteration:   361
 C         4.510722        -0.079729         2.294801
 C         3.326832         0.301996         1.449176
 C         2.049642        -0.565706         1.518336
 C         1.334977         0.228248         0.364262
 C        -0.216363         0.012307         0.020239
 O         1.495722         1.639846         0.807304
 C         2.867811         1.674940         1.120833
 C         3.485357         0.742504        -0.022600
 O         2.308685         0.333617        -0.714806
 H         4.343682         0.245142         3.392994
 H         4.716098        -1.129457         2.339831
 H         5.361932         0.508924         1.930933
 H         1.986894        -1.649527         1.201019
 H         1.536119        -0.637329         2.440802
 H        -0.779654         0.646453         0.743619
 H        -0.389415         0.332651        -1.017988
 H        -0.643159        -0.983016         0.189150
 H         3.195740         2.578220         1.645581
 H         4.407088         0.759127        -0.709037
