19
Iteration:  4864charge 0 multiplicity 1
 C         4.410969         0.831881         2.672914
 C         3.297016         0.661105         1.583889
 C         1.814195         0.386989         1.896968
 C         1.225201         0.263010         0.513650
 C        -0.160371         0.417460        -0.026942
 O         1.842227         1.419570        -0.213056
 C         3.179463         1.400768         0.269481
 C         3.343843        -0.234073         0.169527
 O         2.140820        -0.854584        -0.017368
 H         4.433208         1.893786         2.955853
 H         4.051429         0.306048         3.565438
 H         5.430996         0.533992         2.479087
 H         1.783814        -0.674038         2.404616
 H         1.440578         1.147838         2.689478
 H        -0.346912         0.197346        -1.144997
 H        -0.804246        -0.082495         0.586289
 H        -0.289476         1.512126         0.136023
 H         3.798890         2.068050        -0.293625
 H         4.364476        -0.706609        -0.080606
