19
Iteration:  1249charge 0 multiplicity 1
 C         4.409019         0.324577         2.450689
 C         3.254994         0.349409         1.503373
 C         1.809948        -0.055067         1.785563
 C         1.270890         0.394417         0.389536
 C        -0.153237         0.025105         0.015457
 O         1.717656         1.822195         0.452853
 C         3.151460         1.532615         0.651622
 C         3.412563         0.198067         0.015274
 O         2.231746        -0.317965        -0.444287
 H         4.239929         1.074046         3.345790
 H         4.670239        -0.549459         3.058692
 H         5.284728         0.588422         1.883109
 H         1.590255        -1.163868         1.876707
 H         1.312262         0.576951         2.577566
 H        -0.627399        -0.266506         0.972296
 H        -0.695069         0.976662        -0.325081
 H        -0.066344        -0.758184        -0.805344
 H         3.839569         2.382489         0.554483
 H         4.308615        -0.157665        -0.441038
