19
Iteration:   429charge 0 multiplicity 1
 C         4.538846         0.050127         2.294748
 C         3.314648         0.177510         1.424672
 C         1.980723        -0.525287         1.527013
 C         1.294365         0.340368         0.412753
 C        -0.079714         0.035891        -0.029316
 O         1.526749         1.712221         0.856364
 C         2.876867         1.616408         1.125554
 C         3.444824         0.582165        -0.000472
 O         2.249899         0.233083        -0.752723
 H         4.202818         0.188247         3.359072
 H         5.090405        -0.947997         2.256089
 H         5.220277         0.850850         2.092852
 H         1.989544        -1.566868         1.335248
 H         1.453167        -0.472101         2.472427
 H        -0.455954        -0.976578         0.159880
 H        -0.665130         0.756828         0.552438
 H        -0.277468         0.286056        -1.076190
 H         3.204454         2.640983         1.297670
 H         4.275812         0.804123        -0.587483
