19
Iteration:  1480charge 0 multiplicity 1
 C         4.461690         0.366377         2.616089
 C         3.265683         0.412796         1.529451
 C         1.739743         0.076243         1.815034
 C         1.309413         0.349748         0.360232
 C        -0.166769         0.100416         0.093644
 O         1.732454         1.737765         0.171145
 C         3.161644         1.552747         0.533384
 C         3.484761         0.077333         0.084093
 O         2.191869        -0.402497        -0.355640
 H         4.127643         0.802769         3.665590
 H         4.725486        -0.658883         2.799026
 H         5.261059         0.900512         2.157209
 H         1.388485        -0.920343         2.100702
 H         1.310906         0.899290         2.426509
 H        -0.735705        -0.327865         0.943934
 H        -0.694744         0.999858        -0.215789
 H        -0.442379        -0.590483        -0.641363
 H         3.803226         2.499549         0.513669
 H         4.312962        -0.203994        -0.614264
