19
Iteration:  1826charge 0 multiplicity 1
 C         4.365890         0.611410         2.677260
 C         3.262225         0.593723         1.507260
 C         1.807675         0.145724         1.812682
 C         1.290404         0.277360         0.416527
 C        -0.140912         0.377888         0.089141
 O         1.841806         1.609919         0.037053
 C         3.124858         1.438944         0.312139
 C         3.406220        -0.057642         0.175357
 O         2.148912        -0.664333        -0.177505
 H         4.071282         0.987217         3.571352
 H         4.680457        -0.447717         2.909113
 H         5.273449         1.001546         2.163901
 H         1.883614        -0.867657         2.189837
 H         1.226793         0.794748         2.462041
 H        -0.384438        -0.503875        -0.543508
 H        -0.746807         0.105726         0.860394
 H        -0.352884         1.291924        -0.424619
 H         3.699596         2.381509        -0.027290
 H         4.317908        -0.540512        -0.229837
