19
Iteration:  1784
 C         4.415027         0.494174         2.618909
 C         3.223630         0.488475         1.612579
 C         1.820559         0.310982         1.861600
 C         1.322982         0.387738         0.379076
 C        -0.154986         0.084131         0.086634
 O         1.819703         1.637340         0.037238
 C         3.216501         1.465435         0.467117
 C         3.370804        -0.058483         0.129687
 O         2.101856        -0.509119        -0.318006
 H         4.341616         1.427910         3.223351
 H         4.361396        -0.349535         3.320776
 H         5.259504         0.515671         1.980988
 H         1.486740        -0.568853         2.370466
 H         1.392460         1.209227         2.275135
 H        -0.170666        -1.033102         0.353912
 H        -0.762307         0.692329         0.701101
 H        -0.302416         0.276877        -1.005133
 H         3.859723         2.407388         0.294190
 H         4.131044        -0.712601        -0.325099
