19
Iteration:  1671charge 0 multiplicity 1
 C         4.366826         0.577449         2.602126
 C         3.213661         0.324938         1.663144
 C         1.784893         0.143573         1.887947
 C         1.326839         0.404403         0.398259
 C        -0.110904         0.130093         0.063759
 O         1.796709         1.760031         0.051312
 C         3.205412         1.351696         0.399015
 C         3.397025         0.008916         0.118967
 O         2.115544        -0.436185        -0.340622
 H         4.308958         1.021339         3.559979
 H         4.886887        -0.370857         2.976556
 H         5.185052         1.300107         2.102831
 H         1.662101        -0.978922         1.987574
 H         1.398837         0.744915         2.744561
 H        -0.731117         0.983328         0.352072
 H        -0.290214        -0.286197        -1.001803
 H        -0.586092        -0.499634         0.814621
 H         4.013029         2.103701         0.363162
 H         4.263992        -0.500511        -0.307534
