19
Iteration:  4785charge 0 multiplicity 1
 C         4.365446         0.650134         2.633510
 C         3.213349         0.661106         1.603894
 C         1.695489         0.599834         1.861658
 C         1.310812         0.377269         0.389728
 C        -0.201317         0.164328         0.143500
 O         1.841862         1.506735        -0.227595
 C         3.308230         1.379412         0.160847
 C         3.429241        -0.217004         0.360920
 O         2.145353        -0.749214        -0.089150
 H         4.149597         1.216142         3.562337
 H         4.427667        -0.402457         2.965778
 H         5.354144         0.944237         2.242207
 H         1.672207        -0.163507         2.667255
 H         1.330533         1.478151         2.399419
 H        -0.172560         0.146122        -0.924494
 H        -0.512196        -0.840365         0.477564
 H        -0.859781         0.895350         0.606342
 H         4.066778         2.071052        -0.357325
 H         4.209918        -0.869545         0.140091
