19
Iteration:  3019charge 0 multiplicity 1
 C         4.304008         0.707729         2.637951
 C         3.266342         0.594420         1.591609
 C         1.722926         0.583281         1.830185
 C         1.353357         0.437509         0.363311
 C        -0.187631         0.104533         0.089908
 O         1.967176         1.657704        -0.205940
 C         3.262005         1.287522         0.199484
 C         3.338549        -0.318936         0.414938
 O         2.058986        -0.716477        -0.045605
 H         4.578197         1.699437         2.847157
 H         4.393588         0.144067         3.574184
 H         5.202674         0.357782         2.106524
 H         1.388998        -0.298486         2.388078
 H         1.443086         1.555571         2.231321
 H        -0.640390        -0.119486         1.053425
 H        -0.862874         0.685329        -0.470946
 H        -0.186288        -0.865626        -0.428635
 H         4.172920         1.744270        -0.220531
 H         4.293338        -0.733836        -0.018532
