19
Iteration:  2154charge 0 multiplicity 1
 C         4.375382         0.824155         2.626493
 C         3.295836         0.512048         1.573456
 C         1.778927         0.407245         1.882532
 C         1.280479         0.356614         0.454718
 C        -0.258782         0.404182         0.027612
 O         1.912049         1.536630        -0.125003
 C         3.219176         1.269949         0.246249
 C         3.407296        -0.268019         0.281551
 O         2.133689        -0.803496        -0.121776
 H         4.203479         1.860360         2.821803
 H         4.352884         0.295997         3.631205
 H         5.396842         0.804075         2.226538
 H         1.459905        -0.511382         2.480788
 H         1.399396         1.328278         2.453888
 H        -0.534187         0.896197        -0.944686
 H        -0.672530        -0.672450        -0.246311
 H        -0.760686         0.711065         0.998115
 H         3.876609         2.124258         0.143986
 H         4.288913        -0.676388        -0.164536
