19
Iteration:  3012
 C         4.245381         0.723528         2.603192
 C         3.287609         0.633222         1.573520
 C         1.727705         0.588887         1.833791
 C         1.307932         0.421147         0.354808
 C        -0.178177         0.102305         0.092917
 O         1.999228         1.671179        -0.154708
 C         3.292209         1.200145         0.229235
 C         3.347827        -0.275819         0.311915
 O         2.069658        -0.725791        -0.011007
 H         4.474177         1.807273         2.848348
 H         4.271450         0.076111         3.464175
 H         5.132720         0.463612         1.981029
 H         1.505074        -0.205341         2.616489
 H         1.303998         1.514287         2.356166
 H        -0.603528        -0.204121         1.099392
 H        -0.681331         0.830442        -0.602865
 H        -0.100452        -0.886754        -0.487833
 H         4.073988         1.765619        -0.125573
 H         4.075366        -1.026660         0.075664
