19
Iteration:  4586
 C         4.358688         0.773387         2.532773
 C         3.244955         0.566403         1.568216
 C         1.676902         0.507513         1.868152
 C         1.258056         0.339995         0.436327
 C        -0.217966         0.074374         0.155457
 O         1.983246         1.699073        -0.189740
 C         3.350445         1.276604         0.309191
 C         3.359936        -0.320487         0.339904
 O         2.079617        -0.666468        -0.165588
 H         3.995103         1.356367         3.370993
 H         4.875027        -0.110648         2.895392
 H         5.052416         1.466088         2.039386
 H         1.357196        -0.401504         2.376445
 H         1.423481         1.469343         2.311217
 H        -0.399063        -0.003782        -0.897485
 H        -0.371122        -0.912696         0.600235
 H        -0.617409         0.946933         0.685053
 H         4.044811         2.016558        -0.079031
 H         4.180314        -0.983842         0.422552
