19
Iteration:  1282
 C         4.467549         0.188080         2.525213
 C         3.205882         0.468525         1.584290
 C         1.897494         0.010331         1.894800
 C         1.337242         0.346071         0.410053
 C        -0.147002         0.065105         0.038620
 O         1.627135         1.742769         0.204563
 C         3.079957         1.576833         0.656230
 C         3.402394         0.194744         0.033044
 O         2.241687        -0.294091        -0.485503
 H         4.567059         0.740346         3.565824
 H         4.612143        -0.897388         2.636772
 H         5.387185         0.599729         2.130217
 H         1.906137        -1.101091         2.112164
 H         1.290390         0.587657         2.630078
 H        -0.592873        -0.912153         0.349060
 H        -0.734734         0.922417         0.530218
 H        -0.378954         0.291547        -1.029734
 H         3.625125         2.549929         0.677134
 H         4.407215        -0.156356        -0.250216
