19
Iteration:  2039
 C         4.385967         0.640943         2.673154
 C         3.295634         0.583968         1.648511
 C         1.765290         0.335700         1.855192
 C         1.274319         0.351676         0.400813
 C        -0.140259         0.346584         0.065781
 O         1.819479         1.508128        -0.176115
 C         3.203547         1.393570         0.146118
 C         3.383673        -0.086441         0.278263
 O         2.117065        -0.740614        -0.070119
 H         4.361501         1.090201         3.752593
 H         4.701368        -0.370726         2.939437
 H         5.262802         1.015073         2.130315
 H         1.436117        -0.600745         2.298300
 H         1.365603         1.161790         2.428361
 H        -0.557891        -0.501817         0.703699
 H        -0.589390         1.291408         0.484439
 H        -0.318318         0.258778        -1.015681
 H         3.962108         2.133246         0.065449
 H         4.287624        -0.575839        -0.099503
