19
Iteration:  1018
 C         4.402194         0.216739         2.582053
 C         3.326086         0.345201         1.526013
 C         1.974760        -0.226886         1.676409
 C         1.275875         0.286495         0.449216
 C        -0.143563         0.107754         0.029615
 O         1.674081         1.714495         0.579996
 C         3.069886         1.665675         0.591746
 C         3.383677         0.388170        -0.004946
 O         2.192579        -0.190093        -0.583444
 H         4.048290         0.567890         3.650511
 H         4.577847        -0.839087         2.729836
 H         5.293645         0.725553         2.321109
 H         1.879807        -1.332293         1.706327
 H         1.408427         0.191448         2.563955
 H        -0.934851         0.291146         0.813550
 H        -0.302117         0.759222        -0.849962
 H        -0.253983        -0.960058        -0.265068
 H         3.737894         2.502425         0.518054
 H         4.127056         0.309326        -0.760302
