19
Iteration:  4703charge 0 multiplicity 1
 C         4.382797         0.853381         2.520070
 C         3.120164         0.478063         1.622200
 C         1.670592         0.433157         1.864487
 C         1.306034         0.423853         0.448246
 C        -0.175919         0.115004         0.180498
 O         2.033574         1.608534        -0.129943
 C         3.293698         1.248585         0.267471
 C         3.403906        -0.245220         0.288372
 O         2.076707        -0.675995        -0.173189
 H         4.155921         1.918907         2.780579
 H         4.580687         0.305587         3.490335
 H         5.331554         0.886782         1.927350
 H         1.224916        -0.418038         2.370720
 H         1.292376         1.437434         2.122090
 H        -0.355864         0.238557        -0.987468
 H        -0.304358        -0.953441         0.397850
 H        -0.910326         0.858246         0.652021
 H         3.960952         2.075593         0.246404
 H         4.166620        -0.979353         0.118867
