19
Iteration:  4485
 C         4.363269         0.736601         2.591165
 C         3.191267         0.548244         1.642601
 C         1.732686         0.535746         1.873593
 C         1.278652         0.374873         0.372073
 C        -0.220465         0.018566         0.167491
 O         1.963909         1.606130        -0.203389
 C         3.283378         1.264013         0.305331
 C         3.386503        -0.230264         0.265444
 O         2.105186        -0.577205        -0.142078
 H         4.509325         1.802858         2.852934
 H         4.432422         0.241726         3.592672
 H         5.196876         0.321660         1.998258
 H         1.358375        -0.187000         2.570832
 H         1.249283         1.489858         2.269036
 H        -0.399576        -0.143792        -0.963096
 H        -0.177141        -0.831646         0.776286
 H        -0.766115         0.962576         0.385681
 H         4.000404         1.877458        -0.147816
 H         4.225382        -0.989830         0.141954
