19
Iteration:   408charge 0 multiplicity 1
 C         4.534451         0.054901         2.451728
 C         3.389293         0.232927         1.391153
 C         2.100680        -0.569809         1.532871
 C         1.261632         0.308877         0.433588
 C        -0.176271         0.091779        -0.148908
 O         1.509170         1.650093         0.939757
 C         2.970570         1.585820         0.960717
 C         3.391281         0.699914        -0.092893
 O         2.152468         0.260326        -0.659374
 H         4.215683         0.188186         3.510064
 H         4.851692        -1.079622         2.462763
 H         5.368844         0.716353         2.245727
 H         2.346809        -1.568379         1.317028
 H         1.659231        -0.702595         2.537458
 H        -0.638998        -0.723347         0.441131
 H        -0.772009         1.007585        -0.229799
 H        -0.081441        -0.315197        -1.171940
 H         3.510112         2.443264         1.389034
 H         4.199157         0.634996        -0.743631
