19
Iteration:  4469charge 0 multiplicity 1
 C         4.386806         0.698957         2.623989
 C         3.239087         0.685868         1.595904
 C         1.674515         0.573761         1.884206
 C         1.276821         0.389602         0.448026
 C        -0.204069         0.024384         0.100167
 O         1.973282         1.636402        -0.071436
 C         3.321637         1.287042         0.175722
 C         3.361658        -0.195573         0.265347
 O         2.075584        -0.745109        -0.168883
 H         4.713160         1.741321         2.834087
 H         3.989603         0.186654         3.507210
 H         5.334866         0.235176         2.295219
 H         1.529621        -0.386545         2.424837
 H         1.278342         1.499649         2.263064
 H        -0.229011        -0.449210        -0.831466
 H        -0.604656        -0.794562         0.793607
 H        -0.907576         0.878282         0.220475
 H         4.175099         1.982903        -0.130473
 H         4.180354        -0.742116        -0.087270
