19
Iteration:  2704charge 0 multiplicity 1
 C         4.321978         0.726665         2.692719
 C         3.280054         0.608457         1.557234
 C         1.774643         0.672871         1.936048
 C         1.286870         0.458713         0.424225
 C        -0.085558         0.090454         0.062254
 O         1.932303         1.513107        -0.279179
 C         3.303247         1.198590         0.112518
 C         3.323229        -0.233890         0.375449
 O         2.001067        -0.712347        -0.020752
 H         4.305653         1.716029         3.116372
 H         4.204278         0.024408         3.513855
 H         5.387564         0.735450         2.430380
 H         1.455141        -0.048461         2.701304
 H         1.469711         1.690066         2.243405
 H        -0.523476        -0.817464         0.409053
 H        -0.785128         0.956332         0.316303
 H        -0.270126         0.048701        -0.968219
 H         4.139732         1.576938        -0.394862
 H         4.146090        -0.982355         0.068576
