19
Iteration:  2307
 C         4.298405         0.906213         2.523175
 C         3.265884         0.513877         1.527086
 C         1.745897         0.504468         1.944776
 C         1.261523         0.461744         0.446796
 C        -0.195304         0.266343         0.025172
 O         1.915716         1.515864        -0.108070
 C         3.349367         1.214188         0.271543
 C         3.385760        -0.330305         0.323437
 O         2.096765        -0.791284        -0.096389
 H         4.275629         1.957306         2.710817
 H         4.103984         0.450795         3.559221
 H         5.339751         0.667599         2.325583
 H         1.526018        -0.464363         2.487307
 H         1.616854         1.516457         2.432552
 H        -0.717849         0.408428         0.974984
 H        -0.365393         1.128958        -0.722228
 H        -0.525898        -0.583647        -0.566883
 H         4.069696         1.957483        -0.115539
 H         4.058253        -1.104913         0.008127
