19
Iteration:  4351charge 0 multiplicity 1
 C         4.349305         0.800296         2.679755
 C         3.306188         0.588436         1.560089
 C         1.811562         0.491491         1.900660
 C         1.267478         0.301724         0.482472
 C        -0.147645         0.173146         0.047579
 O         1.936184         1.623834        -0.156899
 C         3.223302         1.295889         0.096630
 C         3.363039        -0.250750         0.290981
 O         2.028153        -0.722753        -0.025664
 H         3.870032         1.407361         3.507748
 H         4.636022        -0.165819         3.187825
 H         5.233323         1.375635         2.313050
 H         1.393768        -0.259671         2.558896
 H         1.598249         1.492939         2.144668
 H        -0.124448         0.444706        -0.963793
 H        -0.465992        -0.938481        -0.065946
 H        -0.967926         0.664175         0.559109
 H         4.124481         1.696913        -0.453334
 H         4.112557        -0.961219         0.003687
