19
Iteration:  2070
 C         4.261804         0.614134         2.609081
 C         3.235013         0.622579         1.563533
 C         1.807321         0.585329         1.969904
 C         1.303839         0.374091         0.433880
 C        -0.077676         0.095659         0.073129
 O         1.917315         1.651136        -0.122964
 C         3.255553         1.314948         0.285550
 C         3.365538        -0.244891         0.168862
 O         2.047667        -0.664712        -0.156300
 H         4.222124         1.355405         3.515585
 H         4.367691        -0.523391         2.845144
 H         5.256984         0.840287         2.164800
 H         1.546198        -0.280781         2.570913
 H         1.530108         1.581498         2.287639
 H        -0.105515        -1.032160        -0.086529
 H        -0.784850         0.215379         0.978873
 H        -0.575778         0.732163        -0.649450
 H         4.055052         1.963139         0.007275
 H         4.148028        -0.992322         0.147185
