19
Iteration:  1162
 C         4.448034         0.194586         2.520118
 C         3.284799         0.358210         1.600456
 C         1.796543        -0.145571         1.771364
 C         1.316723         0.366639         0.409639
 C        -0.108961         0.031975         0.117218
 O         1.722019         1.795051         0.308522
 C         3.027720         1.587960         0.559644
 C         3.450679         0.276728         0.084350
 O         2.209338        -0.176961        -0.519569
 H         4.259774         0.704509         3.535323
 H         4.842372        -0.790382         2.568604
 H         5.131060         0.897309         2.167175
 H         1.526223        -1.257192         1.944672
 H         1.305071         0.419331         2.632888
 H        -0.575877         0.752645        -0.583985
 H        -0.120374        -1.024933        -0.287505
 H        -0.846317        -0.040817         0.990528
 H         3.641260         2.416698         0.747279
 H         4.266227        -0.006744        -0.526024
