19
Iteration:  3591charge 0 multiplicity 1
 C         4.330517         0.895629         2.686105
 C         3.346240         0.669947         1.558295
 C         1.801085         0.472600         1.919952
 C         1.260229         0.298306         0.452416
 C        -0.132032         0.334332        -0.056702
 O         1.862384         1.522805        -0.092833
 C         3.234729         1.182029         0.140143
 C         3.362181        -0.303202         0.330632
 O         2.052927        -0.815363        -0.078992
 H         4.312549         2.007753         2.902527
 H         4.235679         0.267871         3.601364
 H         5.424243         0.820334         2.445335
 H         1.843610        -0.484538         2.480274
 H         1.352912         1.366018         2.393692
 H        -0.011341         0.209857        -1.180141
 H        -0.825357        -0.363290         0.397365
 H        -0.614242         1.347158         0.190988
 H         3.879658         1.901156        -0.452061
 H         4.236430        -1.022443         0.167727
