19
Iteration:  2778
 C         4.394907         0.917504         2.616780
 C         3.303097         0.614199         1.644544
 C         1.791255         0.563247         1.841791
 C         1.260587         0.342280         0.382046
 C        -0.222424         0.351162        -0.054995
 O         1.936389         1.466154        -0.222976
 C         3.333750         1.153034         0.223259
 C         3.372827        -0.301131         0.378171
 O         2.009103        -0.813475         0.044414
 H         3.968571         1.676183         3.283692
 H         4.523489         0.089827         3.372074
 H         5.391942         1.309011         2.414371
 H         1.613001        -0.343869         2.484703
 H         1.376079         1.485666         2.333357
 H        -0.476698        -0.666447        -0.368018
 H        -0.880201         0.542372         0.887412
 H        -0.632341         1.006043        -0.821244
 H         4.008776         1.737245        -0.318206
 H         4.092446        -0.997135        -0.223143
