19
Iteration:  1214charge 0 multiplicity 1
 C         4.422579         0.324304         2.633594
 C         3.371005         0.400509         1.558199
 C         1.921890        -0.187519         1.787035
 C         1.286050         0.300504         0.447325
 C        -0.126438         0.206194         0.012718
 O         1.608877         1.662826         0.385368
 C         3.085922         1.548196         0.566756
 C         3.391912         0.268332        -0.029894
 O         2.197131        -0.252300        -0.495235
 H         4.101812         1.183548         3.283008
 H         4.510505        -0.744952         3.026027
 H         5.402260         0.770032         2.291090
 H         1.893941        -1.284536         1.903747
 H         1.523960         0.209478         2.722674
 H        -0.617264         0.853533         0.762606
 H        -0.236297         0.658578        -0.986819
 H        -0.707895        -0.771884         0.063091
 H         3.709069         2.307735         0.187072
 H         4.201985        -0.080356        -0.632238
