19
Iteration:  4257charge 0 multiplicity 1
 C         4.232200         0.851305         2.589644
 C         3.286186         0.445235         1.531176
 C         1.798617         0.539280         1.965414
 C         1.287103         0.369856         0.493375
 C        -0.101755         0.117890         0.057158
 O         1.962626         1.635843        -0.115371
 C         3.303397         1.243764         0.154494
 C         3.360276        -0.269630         0.204461
 O         2.030641        -0.687360        -0.043673
 H         4.129359         1.913498         2.918428
 H         3.925103         0.396716         3.554187
 H         5.312193         0.699098         2.385094
 H         1.395436        -0.379221         2.483257
 H         1.757463         1.559207         2.551771
 H        -0.022546        -0.338299        -0.973267
 H        -0.690868        -0.702622         0.493397
 H        -0.781243         0.998965         0.042460
 H         4.023673         2.097449        -0.109179
 H         3.988148        -1.018909        -0.183492
