19
Iteration:  2903charge 0 multiplicity 1
 C         4.366730         0.822124         2.681392
 C         3.305290         0.548658         1.571761
 C         1.781546         0.628089         1.841347
 C         1.237706         0.358065         0.436086
 C        -0.244059         0.146742         0.013732
 O         1.996051         1.534331        -0.209836
 C         3.342879         1.198543         0.215654
 C         3.322389        -0.227997         0.286398
 O         2.024621        -0.706455         0.044329
 H         4.061512         1.784204         3.238243
 H         4.552611        -0.022413         3.367528
 H         5.331530         0.959630         2.106431
 H         1.315218        -0.150795         2.475014
 H         1.420397         1.670022         1.981717
 H        -0.454037        -0.955020         0.138082
 H        -1.001787         0.645572         0.600168
 H        -0.396090         0.429504        -1.095538
 H         4.235445         1.628873        -0.251964
 H         4.174932        -0.952737         0.102031
