19
Iteration:  3855
 C         4.361467         0.699571         2.673021
 C         3.224979         0.616401         1.621836
 C         1.761427         0.605254         1.903479
 C         1.304938         0.374953         0.429363
 C        -0.187794         0.138508         0.054527
 O         1.913614         1.501700        -0.265840
 C         3.258456         1.274868         0.175997
 C         3.365323        -0.148681         0.317061
 O         2.124574        -0.703758        -0.049769
 H         4.015982         1.392927         3.447458
 H         4.419923        -0.301652         3.073781
 H         5.345733         0.934917         2.251593
 H         1.567657        -0.252299         2.535271
 H         1.437884         1.581300         2.301952
 H        -0.264252        -0.363057        -0.966762
 H        -0.578400        -0.693771         0.779520
 H        -0.821739         1.036215         0.102208
 H         3.963674         2.030351        -0.105910
 H         4.157446        -0.885450         0.089108
