19
Iteration:  2863charge 0 multiplicity 1
 C         4.362293         0.677707         2.675584
 C         3.194906         0.696650         1.616862
 C         1.739006         0.596851         1.827143
 C         1.271212         0.456793         0.450288
 C        -0.167693         0.286424         0.064401
 O         1.905469         1.385814        -0.321343
 C         3.255717         1.258524         0.116960
 C         3.387226        -0.171313         0.393632
 O         2.164753        -0.807183         0.060497
 H         4.548688         1.738665         2.925983
 H         3.940834         0.082009         3.517297
 H         5.198081         0.229069         2.119013
 H         1.508112        -0.236049         2.479067
 H         1.539603         1.477727         2.426707
 H        -0.439365        -0.721154        -0.234901
 H        -0.759038         0.525095         0.959022
 H        -0.301218         0.960076        -0.762385
 H         3.850454         1.883533        -0.464420
 H         4.198960        -0.847247         0.035937
