19
Iteration:  1499
 C         4.312226         0.434671         2.523746
 C         3.222651         0.491176         1.579236
 C         1.903859         0.044336         1.892572
 C         1.271839         0.322966         0.447588
 C        -0.165910         0.236168         0.080488
 O         1.771597         1.682039         0.232902
 C         3.082350         1.496526         0.451581
 C         3.437333         0.148422         0.101434
 O         2.250193        -0.532959        -0.453240
 H         3.953903         0.718910         3.573109
 H         4.625703        -0.623813         2.805752
 H         5.284490         0.881362         2.362772
 H         1.852754        -1.021770         2.125481
 H         1.368283         0.660648         2.611419
 H        -0.651118        -0.567408         0.688966
 H        -0.529905         1.358852         0.076495
 H        -0.146435         0.023136        -0.996127
 H         3.699979         2.350419         0.190824
 H         4.337897        -0.267743        -0.267351
