19
Iteration:   640charge 0 multiplicity 1
 C         4.488855        -0.037645         2.321392
 C         3.188847         0.327410         1.522810
 C         1.859850        -0.323127         1.670794
 C         1.332418         0.318692         0.436621
 C        -0.042195        -0.064682        -0.026575
 O         1.590173         1.792566         0.710360
 C         2.953674         1.654466         0.856213
 C         3.473447         0.549252         0.065447
 O         2.261820         0.083554        -0.671026
 H         4.504556        -0.023177         3.344681
 H         4.952999        -1.039432         1.973365
 H         5.191395         0.761253         1.942919
 H         1.991465        -1.421112         1.618614
 H         1.166342        -0.121749         2.487347
 H        -0.167798        -1.193911        -0.024259
 H        -0.673104         0.474315         0.745715
 H        -0.503183         0.409924        -0.915265
 H         3.421061         2.600519         1.072182
 H         4.336474         0.461251        -0.455819
