19
Iteration:  2640
 C         4.410937         0.866995         2.632092
 C         3.221767         0.718156         1.650361
 C         1.758018         0.412610         1.886693
 C         1.253656         0.361426         0.430656
 C        -0.210334         0.379357         0.074585
 O         1.937179         1.386433        -0.302603
 C         3.337146         1.235611         0.245990
 C         3.405144        -0.232790         0.389804
 O         2.032481        -0.820508        -0.103821
 H         4.375127         1.987458         2.839235
 H         4.045054         0.270331         3.472661
 H         5.383716         0.541951         2.164654
 H         1.561309        -0.523786         2.402898
 H         1.315062         1.251809         2.412132
 H        -0.868535         0.258102         0.934286
 H        -0.193423         1.441791        -0.376527
 H        -0.427531        -0.340169        -0.672934
 H         3.841843         2.125547        -0.022790
 H         4.255966        -1.001412         0.188679
