19
Iteration:  4767charge 0 multiplicity 1
 C         4.253572         0.609624         2.612034
 C         3.294258         0.769070         1.569242
 C         1.855473         0.517945         1.902173
 C         1.313278         0.359225         0.487014
 C        -0.116933         0.259339         0.036465
 O         1.860350         1.463151        -0.214495
 C         3.123217         1.335387         0.120249
 C         3.384144        -0.155891         0.247448
 O         2.191649        -0.818248         0.062051
 H         3.919517         1.180949         3.464695
 H         4.385083        -0.422668         2.919829
 H         5.198511         1.052177         2.374604
 H         1.459442        -0.302133         2.542688
 H         1.308889         1.387507         2.396920
 H        -0.422480         0.646953        -1.004320
 H        -0.610361        -0.663389         0.138364
 H        -0.619337         1.029160         0.658515
 H         3.820337         2.014940        -0.235638
 H         4.368056        -0.609420         0.053619
