19
Iteration:  3727charge 0 multiplicity 1
 C         4.377066         0.974089         2.765571
 C         3.387814         0.606719         1.566728
 C         1.888140         0.472311         1.996743
 C         1.303443         0.323249         0.425475
 C        -0.201644         0.298351        -0.104125
 O         1.861859         1.514348        -0.124380
 C         3.240399         1.172240         0.224359
 C         3.307775        -0.308264         0.196654
 O         2.015684        -0.779567        -0.065050
 H         4.179036         2.040578         3.007824
 H         4.119991         0.362234         3.653786
 H         5.471243         0.860785         2.511071
 H         1.484117        -0.364781         2.565013
 H         1.436396         1.409299         2.453900
 H        -0.007911         0.510287        -1.076099
 H        -0.560059        -0.739045        -0.062736
 H        -0.975272         0.918727         0.235384
 H         4.051672         1.743427        -0.190346
 H         4.042277        -0.995159        -0.354651
