19
Iteration:  1649charge 0 multiplicity 1
 C         4.380265         0.493332         2.615345
 C         3.275363         0.478677         1.508751
 C         1.786392         0.122504         1.855410
 C         1.239867         0.430492         0.396360
 C        -0.206568         0.136633         0.090654
 O         1.828580         1.682182         0.133462
 C         3.227822         1.503136         0.471171
 C         3.442180        -0.035709         0.135973
 O         2.154696        -0.524086        -0.370385
 H         4.049643         0.949921         3.533586
 H         4.747524        -0.514294         3.006520
 H         5.325099         1.204127         2.439355
 H         1.638844        -0.867427         2.382596
 H         1.446403         1.040075         2.395657
 H        -0.853926         0.942163        -0.237670
 H        -0.146992        -0.612423        -0.779715
 H        -0.880266        -0.191652         0.885719
 H         3.816773         2.442591         0.225601
 H         4.298896        -0.484998        -0.381553
