19
Iteration:  3497charge 0 multiplicity 1
 C         4.277917         0.620118         2.730013
 C         3.275464         0.691452         1.486926
 C         1.866052         0.645201         1.869396
 C         1.338852         0.407239         0.451985
 C        -0.046133         0.249326        -0.063260
 O         1.799242         1.471073        -0.214833
 C         3.161538         1.319783         0.088241
 C         3.382411        -0.264007         0.274506
 O         2.080765        -0.819840         0.223385
 H         3.966348         1.479277         3.318262
 H         4.259192        -0.299716         3.265894
 H         5.269501         0.987024         2.487110
 H         1.582365        -0.126674         2.614298
 H         1.634143         1.674797         2.134735
 H        -0.025566         0.322186        -1.175721
 H        -0.386788        -0.753738         0.236045
 H        -0.695305         1.008494         0.332118
 H         3.891868         1.922961        -0.510601
 H         4.265392        -0.696129        -0.318058
