19
Iteration:   837charge 0 multiplicity 1
 C         4.465329         0.106767         2.491674
 C         3.313395         0.338536         1.536766
 C         1.884848        -0.297054         1.707455
 C         1.273122         0.328072         0.416752
 C        -0.136924         0.002536         0.014444
 O         1.609786         1.776023         0.626950
 C         3.031067         1.627406         0.765912
 C         3.449361         0.434638        -0.029981
 O         2.224008         0.017615        -0.652754
 H         4.326626         0.393319         3.496579
 H         4.851664        -0.995260         2.396184
 H         5.293041         0.842287         2.092440
 H         1.720629        -1.411358         1.686894
 H         1.349532         0.156476         2.518973
 H        -0.321124        -0.979985         0.503188
 H        -0.895674         0.751771         0.282053
 H        -0.054530        -0.373101        -1.037814
 H         3.655883         2.493979         0.766614
 H         4.281526        -0.049623        -0.552799
