19
Iteration:  2133
 C         4.299988         0.758724         2.535561
 C         3.183172         0.594440         1.606860
 C         1.727022         0.368576         1.902528
 C         1.324351         0.279122         0.457902
 C        -0.082977         0.419066         0.095718
 O         1.855708         1.482946        -0.142437
 C         3.226580         1.333234         0.208131
 C         3.425626        -0.170513         0.284831
 O         2.145487        -0.718209        -0.088965
 H         4.540162         1.698425         2.952108
 H         4.045775         0.124296         3.466666
 H         5.241135         0.348087         2.211688
 H         1.732143        -0.649921         2.381260
 H         1.234714         1.141256         2.569983
 H        -0.078398         0.420708        -0.997051
 H        -0.740208        -0.534329         0.164982
 H        -0.430852         1.211052         0.772054
 H         3.872691         1.841697        -0.463196
 H         4.235622        -0.854199         0.111059
