19
Iteration:  4091charge 0 multiplicity 1
 C         4.399629         0.858053         2.554175
 C         3.180486         0.656717         1.699287
 C         1.663360         0.453909         1.901984
 C         1.337430         0.347282         0.389177
 C        -0.153801         0.320262         0.156283
 O         1.906540         1.426013        -0.251813
 C         3.252507         1.250280         0.234024
 C         3.321874        -0.274735         0.431562
 O         2.190820        -0.755679        -0.251066
 H         4.464136         1.906332         2.979510
 H         4.258906         0.271114         3.518158
 H         5.281960         0.584093         1.942606
 H         1.559466        -0.578064         2.418339
 H         1.108634         1.260293         2.475542
 H        -0.453585         0.390067        -0.908961
 H        -0.596092        -0.562155         0.679074
 H        -0.453666         1.239358         0.675172
 H         3.926207         2.131395         0.011478
 H         4.249116        -0.743840         0.411455
