19
Iteration:  1117charge 0 multiplicity 1
 C         4.431782         0.144267         2.486757
 C         3.279761         0.371049         1.468219
 C         1.895748        -0.144016         1.879944
 C         1.258900         0.302850         0.482683
 C        -0.058077         0.051701        -0.008265
 O         1.611619         1.775050         0.431664
 C         3.064682         1.675372         0.560683
 C         3.403458         0.347944        -0.049654
 O         2.243861        -0.235182        -0.431224
 H         4.194079         0.478501         3.525218
 H         4.433833        -0.916393         2.422022
 H         5.376945         0.556239         2.274947
 H         1.686556        -1.199847         2.254208
 H         1.352535         0.517048         2.603166
 H         0.033412        -0.308062        -1.061172
 H        -0.655315        -0.583974         0.672637
 H        -0.545922         1.088795        -0.069212
 H         3.583448         2.665320         0.566227
 H         4.450752         0.077367        -0.467396
