19
Iteration:  3570charge 0 multiplicity 1
 C         4.267578         0.910283         2.504040
 C         3.176723         0.517294         1.647470
 C         1.717054         0.478066         1.926043
 C         1.307771         0.335058         0.409059
 C        -0.191488         0.316202         0.081772
 O         1.992746         1.467656        -0.252239
 C         3.318915         1.240888         0.285747
 C         3.390876        -0.268536         0.341441
 O         2.134104        -0.741397        -0.045347
 H         4.448957         2.005063         2.727834
 H         4.219741         0.302841         3.445907
 H         5.227737         0.526211         2.073036
 H         1.406353        -0.412407         2.530496
 H         1.264758         1.434436         2.230850
 H        -0.405583         0.327903        -1.009418
 H        -0.621036        -0.556710         0.494390
 H        -0.710386         1.160230         0.590893
 H         3.947342         2.079030        -0.061300
 H         4.266563        -0.872494        -0.042319
