19
Iteration:  2482
 C         4.293935         0.913734         2.595405
 C         3.276812         0.438148         1.584003
 C         1.755884         0.524202         1.917412
 C         1.310218         0.466456         0.497984
 C        -0.128825         0.258612         0.036469
 O         1.989673         1.521912        -0.282220
 C         3.321245         1.214505         0.231444
 C         3.358108        -0.325429         0.257247
 O         1.995677        -0.749741         0.050448
 H         4.211847         2.020181         2.537594
 H         4.232143         0.659948         3.759619
 H         5.361135         0.748690         2.338481
 H         1.219018        -0.350945         2.399273
 H         1.271984         1.439678         2.366190
 H        -0.405077        -0.846401        -0.023272
 H        -0.936830         0.701928         0.644942
 H        -0.235540         0.662035        -0.993611
 H         4.139855         1.818793         0.002575
 H         4.049381        -1.123536        -0.195170
