19
Iteration:  4478charge 0 multiplicity 1
 C         4.361814         0.707536         2.615753
 C         3.226597         0.617829         1.653215
 C         1.699730         0.602748         1.865617
 C         1.264886         0.349886         0.409289
 C        -0.219509         0.042323         0.144555
 O         1.976875         1.637954        -0.133119
 C         3.322763         1.248219         0.261158
 C         3.353259        -0.227774         0.213147
 O         2.145270        -0.635284        -0.152931
 H         4.574764         1.767517         2.745014
 H         4.361192         0.256604         3.595345
 H         5.218218         0.267807         2.091930
 H         1.451351        -0.324646         2.533736
 H         1.001259         1.398301         2.280254
 H        -0.328908        -0.347879        -0.913483
 H        -0.499477        -0.833990         0.836814
 H        -1.110371         0.706533         0.316400
 H         4.065770         1.865079        -0.333398
 H         4.121872        -0.902768         0.035926
