19
Iteration:  1851charge 0 multiplicity 1
 C         4.358309         0.625330         2.659235
 C         3.272177         0.412042         1.588534
 C         1.837451         0.257821         1.976453
 C         1.285242         0.381859         0.392629
 C        -0.205792         0.254537         0.098184
 O         1.825579         1.604097        -0.024549
 C         3.219217         1.350802         0.321791
 C         3.381327        -0.059790         0.151479
 O         2.177033        -0.562666        -0.292955
 H         3.902727         1.076268         3.587183
 H         4.927173        -0.196979         3.057241
 H         4.987160         1.256928         2.110796
 H         1.665048        -0.703026         2.430207
 H         1.401580         1.074962         2.542692
 H        -0.336580        -0.205247        -0.909849
 H        -0.792740        -0.467438         0.740258
 H        -0.626664         1.324425         0.051617
 H         3.804417         2.163480        -0.005642
 H         4.171877        -0.678015        -0.221393
