19
Iteration:  3733
 C         4.360813         0.996339         2.714596
 C         3.389534         0.528154         1.623914
 C         1.849716         0.468473         1.993253
 C         1.256791         0.337969         0.426551
 C        -0.203929         0.279381        -0.099766
 O         1.873608         1.513552        -0.157155
 C         3.267458         1.220299         0.236195
 C         3.342032        -0.349720         0.256106
 O         2.017977        -0.760590        -0.087118
 H         4.174989         2.070949         2.843302
 H         4.136532         0.401827         3.591794
 H         5.353523         0.837619         2.333899
 H         1.580411        -0.464638         2.543976
 H         1.650229         1.357927         2.569020
 H        -0.046113         0.548716        -1.246470
 H        -0.584346        -0.744180        -0.012761
 H        -0.829181         1.058441         0.478743
 H         3.998205         1.957661        -0.159721
 H         4.067892        -0.877817        -0.274737
