19
Iteration:  3422charge 0 multiplicity 1
 C         4.316041         0.940133         2.589556
 C         3.274488         0.422370         1.623790
 C         1.744857         0.490656         1.906932
 C         1.272586         0.381411         0.371380
 C        -0.235368         0.267536         0.005937
 O         2.007728         1.520384        -0.185006
 C         3.281081         1.208790         0.218170
 C         3.398331        -0.217517         0.324297
 O         2.068210        -0.762521        -0.008471
 H         4.209197         2.013257         2.714391
 H         4.262048         0.334482         3.494173
 H         5.325979         0.855044         2.137146
 H         1.450043        -0.398597         2.441826
 H         1.458696         1.416983         2.376150
 H        -0.514727        -0.320530        -0.935044
 H        -0.697829        -0.209975         0.976822
 H        -0.622369         1.299832         0.001797
 H         4.082959         1.897779         0.017028
 H         4.128987        -0.968321        -0.043405
