19
Iteration:   442
 C         4.558046         0.024963         2.291159
 C         3.269524         0.220344         1.485018
 C         1.823534        -0.501222         1.501743
 C         1.341382         0.338691         0.353145
 C        -0.081829         0.067419         0.056848
 O         1.458201         1.646720         0.846200
 C         2.919258         1.628297         1.001543
 C         3.441430         0.715923        -0.011596
 O         2.351445         0.177057        -0.683560
 H         4.472420         0.086020         3.365626
 H         5.077964        -0.972472         1.907668
 H         5.331752         0.782012         1.984569
 H         1.896517        -1.465355         1.087516
 H         1.269937        -0.326643         2.455442
 H        -0.109656        -1.026646        -0.024632
 H        -0.747169         0.326044         0.905809
 H        -0.360885         0.532755        -0.905744
 H         3.467315         2.359416         1.545688
 H         4.398165         0.608923        -0.477815
