19
Iteration:  4079charge 0 multiplicity 1
 C         4.293124         0.894603         2.522072
 C         3.140357         0.610287         1.610170
 C         1.742418         0.439265         1.839020
 C         1.327910         0.347934         0.330935
 C        -0.104243         0.317859         0.148573
 O         1.938619         1.545252        -0.145905
 C         3.201248         1.233188         0.326390
 C         3.418624        -0.305628         0.363656
 O         2.143723        -0.796464        -0.115840
 H         4.356084         1.977834         2.738682
 H         4.454860         0.227745         3.396150
 H         5.223220         0.733960         1.946210
 H         1.434417        -0.570986         2.290428
 H         1.186579         1.243469         2.373631
 H        -0.358868         0.147727        -0.941646
 H        -0.568167        -0.461353         0.714856
 H        -0.530335         1.272376         0.471761
 H         3.981653         1.940520        -0.077203
 H         4.190086        -0.973147         0.151064
