19
Iteration:  4866
 C         4.410496         0.832060         2.665053
 C         3.302914         0.647692         1.576183
 C         1.793244         0.389771         1.879621
 C         1.226340         0.267855         0.513770
 C        -0.150960         0.428451        -0.024755
 O         1.841787         1.402903        -0.209249
 C         3.161197         1.390429         0.268628
 C         3.345522        -0.220657         0.173346
 O         2.161719        -0.846126        -0.000590
 H         4.407706         1.865917         2.954740
 H         4.074656         0.300827         3.542880
 H         5.427793         0.526785         2.510083
 H         1.846252        -0.686402         2.343138
 H         1.449608         1.144484         2.668160
 H        -0.377859         0.296673        -1.110600
 H        -0.835306        -0.120016         0.633656
 H        -0.337355         1.514756         0.098821
 H         3.846559         2.103723        -0.289112
 H         4.292894        -0.721230        -0.051614
