19
Iteration:  4828
 C         4.309085         0.794653         2.552528
 C         3.246586         0.524132         1.527900
 C         1.724559         0.501629         1.920793
 C         1.312182         0.475402         0.433308
 C        -0.146753         0.079568         0.087492
 O         1.931467         1.609177        -0.111916
 C         3.333105         1.288817         0.273758
 C         3.364967        -0.317807         0.287148
 O         2.083280        -0.673112        -0.094917
 H         4.202146         1.903575         2.740696
 H         4.266372         0.229043         3.525343
 H         5.321563         0.626236         2.072506
 H         1.211325        -0.376974         2.282766
 H         1.320115         1.426107         2.326075
 H        -0.130764        -0.402077        -0.877938
 H        -0.634022        -0.569367         0.887353
 H        -0.716754         1.019328         0.150331
 H         3.981551         1.979283        -0.284446
 H         4.139876        -0.992401         0.059408
