19
Iteration:   180charge 0 multiplicity 1
 C         4.448220        -0.177150         2.248346
 C         3.346662         0.280480         1.371937
 C         2.174104        -0.567023         1.393776
 C         1.391500         0.264679         0.442280
 C         0.095549        -0.024803        -0.125313
 O         1.402988         1.630197         1.054423
 C         2.831255         1.682863         1.120825
 C         3.359954         0.803516        -0.035810
 O         2.121206         0.389117        -0.642989
 H         4.186355        -0.123668         3.262673
 H         4.653228        -1.281226         2.158316
 H         5.301873         0.426894         2.106089
 H         2.413982        -1.519330         0.925234
 H         1.669881        -0.424141         2.395613
 H        -0.515249        -0.381788         0.709845
 H        -0.337194         0.909319        -0.377060
 H         0.121917        -0.668068        -0.992845
 H         3.158141         2.553884         1.610540
 H         4.095286         1.071093        -0.783590
