19
Iteration:  1310charge 0 multiplicity 1
 C         4.344798         0.185940         2.595570
 C         3.265180         0.500559         1.539012
 C         1.863954        -0.018985         1.783711
 C         1.320515         0.360102         0.495687
 C        -0.103429         0.148884         0.060983
 O         1.626459         1.726592         0.365009
 C         3.093914         1.624027         0.415687
 C         3.456503         0.243511        -0.052353
 O         2.257862        -0.440639        -0.363626
 H         4.060744         0.570193         3.525635
 H         4.636639        -0.894137         2.630572
 H         5.274280         0.732191         2.189949
 H         1.864155        -1.083544         1.912363
 H         1.386757         0.486889         2.606181
 H        -0.368250        -0.711198        -0.581786
 H        -0.728404         0.192064         0.903988
 H        -0.379465         0.965539        -0.632820
 H         3.663978         2.509505         0.287059
 H         4.457026         0.124270        -0.349090
