19
Iteration:  1547charge 0 multiplicity 1
 C         4.354868         0.535426         2.559779
 C         3.308968         0.400921         1.544235
 C         1.800799         0.077906         1.866632
 C         1.270409         0.423957         0.473827
 C        -0.215580         0.157046         0.046837
 O         1.773504         1.705745         0.198359
 C         3.187160         1.464129         0.558401
 C         3.438394        -0.027877         0.091240
 O         2.190095        -0.477060        -0.458980
 H         4.252303         1.298230         3.407093
 H         4.521086        -0.360357         3.171042
 H         5.315785         0.747334         2.049935
 H         1.581904        -0.943741         2.216484
 H         1.369543         0.858391         2.540428
 H        -0.032882        -0.831310        -0.419614
 H        -0.821280         0.049609         0.889004
 H        -0.624538         0.923716        -0.635285
 H         3.878951         2.271902         0.425486
 H         4.317070        -0.063684        -0.600088
