19
Iteration:  1470
 C         4.469372         0.365022         2.559567
 C         3.296233         0.391188         1.622103
 C         1.760876         0.103370         1.767801
 C         1.272699         0.438706         0.370967
 C        -0.168149         0.038257         0.096735
 O         1.762694         1.733224         0.152657
 C         3.089978         1.496222         0.545701
 C         3.471863         0.087808         0.145876
 O         2.156363        -0.355043        -0.413140
 H         4.210905         0.826766         3.593693
 H         4.652934        -0.670914         2.749021
 H         5.449989         0.718342         2.387552
 H         1.400185        -0.866191         2.135810
 H         1.355683         0.897652         2.455786
 H        -0.555394        -0.137356         1.109707
 H        -0.635205         0.802162        -0.431592
 H        -0.009139        -0.812663        -0.513297
 H         3.738254         2.437142         0.475462
 H         4.286544        -0.295923        -0.536132
