19
Iteration:  3659
 C         4.486731         0.677341         2.607512
 C         3.097279         0.678782         1.785996
 C         1.596232         0.675453         1.838039
 C         1.357752         0.302538         0.277592
 C        -0.185126         0.152643         0.181695
 O         1.964495         1.522353        -0.282703
 C         3.281657         1.285701         0.189758
 C         3.390763        -0.229350         0.381770
 O         2.121475        -0.734052        -0.115323
 H         4.195423         1.405256         3.429678
 H         4.485118        -0.293052         3.125659
 H         5.428452         0.859198         2.027542
 H         1.352751        -0.221333         2.501057
 H         0.852915         1.462921         1.976647
 H        -0.557472        -0.090250        -0.797464
 H        -0.412864        -0.465906         0.998758
 H        -0.557617         1.064637         0.515837
 H         4.181994         1.851060        -0.186731
 H         4.273535        -0.728317         0.187846
