19
Iteration:  3620charge 0 multiplicity 1
 C         4.275807         0.777059         2.622853
 C         3.343721         0.570285         1.491168
 C         1.796439         0.506004         1.989149
 C         1.245835         0.438166         0.489924
 C        -0.094610         0.230504        -0.076818
 O         1.918649         1.503546        -0.231612
 C         3.263968         1.235148         0.205159
 C         3.356063        -0.210464         0.218117
 O         2.042782        -0.746976         0.113419
 H         3.897203         1.662758         3.087643
 H         4.319183        -0.050594         3.336668
 H         5.303833         1.082320         2.466079
 H         1.652746        -0.406978         2.538595
 H         1.553707         1.406811         2.597501
 H        -0.124242        -0.303090        -1.021737
 H        -0.672485        -0.519925         0.610105
 H        -0.649773         1.206919        -0.140612
 H         3.838122         2.076555        -0.186772
 H         4.171140        -0.849720        -0.103916
