19
Iteration:  2364
 C         4.286293         0.702733         2.606227
 C         3.258293         0.625017         1.567171
 C         1.793125         0.614954         1.845828
 C         1.222067         0.444692         0.499884
 C        -0.226848         0.253253         0.084544
 O         1.978733         1.478228        -0.272894
 C         3.278595         1.230040         0.154466
 C         3.450139        -0.219933         0.364183
 O         2.101485        -0.800419         0.002821
 H         4.023592         1.509506         3.270533
 H         4.372421        -0.254100         3.152709
 H         5.196212         0.971051         2.087416
 H         1.374325        -0.084024         2.598058
 H         1.602972         1.577265         2.356526
 H        -0.852767        -0.395757         0.741823
 H        -0.797754         1.176139         0.030659
 H        -0.202861        -0.305640        -0.876159
 H         3.955848         2.064443        -0.071443
 H         4.228090        -0.943527         0.126591
