19
Iteration:  4360
 C         4.350664         0.863747         2.663661
 C         3.329358         0.474358         1.579090
 C         1.833088         0.539526         1.862691
 C         1.270674         0.434015         0.474820
 C        -0.177038         0.081361         0.014964
 O         1.946120         1.600574        -0.174190
 C         3.274952         1.268521         0.217296
 C         3.330262        -0.273236         0.275064
 O         1.983710        -0.720163        -0.050272
 H         3.838374         1.496749         3.450049
 H         4.782558        -0.071265         3.118590
 H         5.268155         1.454953         2.382432
 H         1.415555        -0.251551         2.488275
 H         1.536370         1.402953         2.384041
 H        -0.225620         0.433995        -0.984482
 H        -0.485837        -0.983897         0.164020
 H        -0.858013         0.702406         0.598207
 H         4.068904         1.851204        -0.267242
 H         4.155848        -0.808629        -0.227478
