19
Iteration:  1394
 C         4.465585         0.381823         2.584479
 C         3.280387         0.448027         1.569702
 C         1.860794        -0.065664         1.855830
 C         1.280668         0.285554         0.443182
 C        -0.219205         0.219466         0.016921
 O         1.718604         1.653217         0.245606
 C         3.051804         1.540003         0.509163
 C         3.431340         0.175434         0.035303
 O         2.221027        -0.347042        -0.411418
 H         4.426780         1.155309         3.398411
 H         4.454489        -0.557561         3.103031
 H         5.473538         0.533532         2.192936
 H         1.726928        -1.149726         1.999006
 H         1.325397         0.439950         2.707830
 H        -0.321271         1.146690        -0.573868
 H        -0.332346        -0.510553        -0.762590
 H        -0.807155         0.042057         0.865984
 H         3.745083         2.372039         0.451075
 H         4.371246        -0.193223        -0.336448
