19
Iteration:  4021
 C         4.344620         0.714674         2.665055
 C         3.273341         0.708933         1.547162
 C         1.768748         0.554297         1.893174
 C         1.310197         0.310866         0.447277
 C        -0.139552         0.189434         0.017203
 O         1.912906         1.560699        -0.137940
 C         3.231631         1.304421         0.106180
 C         3.349581        -0.212845         0.342140
 O         2.073099        -0.785239        -0.035528
 H         3.917783         1.331011         3.418123
 H         4.412203        -0.286858         3.091781
 H         5.349791         1.036101         2.386513
 H         1.601964        -0.330795         2.488721
 H         1.250085         1.410728         2.299833
 H        -0.134425        -0.220885        -0.997603
 H        -0.711005        -0.452164         0.718816
 H        -0.422319         1.263202        -0.016755
 H         4.007990         1.897962        -0.342082
 H         4.207103        -0.918074         0.076543
