19
Iteration:  2906
 C         4.400688         0.838039         2.699047
 C         3.284730         0.527754         1.578298
 C         1.776995         0.626428         1.838927
 C         1.263632         0.383505         0.447301
 C        -0.258228         0.163170         0.009142
 O         1.983059         1.534696        -0.223159
 C         3.349006         1.200076         0.226877
 C         3.313736        -0.252224         0.278745
 O         2.034285        -0.719600         0.026841
 H         4.024155         1.753016         3.222335
 H         4.547305        -0.045757         3.356941
 H         5.300225         1.043684         2.103077
 H         1.319140        -0.120623         2.470879
 H         1.391540         1.620598         1.998028
 H        -0.442118        -0.894062         0.185561
 H        -1.060272         0.628744         0.593084
 H        -0.374334         0.331701        -1.049195
 H         4.164819         1.609538        -0.249152
 H         4.206668        -0.836369         0.138306
