19
Iteration:  2073
 C         4.285325         0.611825         2.622184
 C         3.218465         0.596662         1.573754
 C         1.802730         0.589393         1.941857
 C         1.320046         0.378425         0.442811
 C        -0.078021         0.084709         0.094490
 O         1.922897         1.652064        -0.114233
 C         3.286077         1.305956         0.257044
 C         3.326555        -0.218764         0.196255
 O         2.036190        -0.666888        -0.165878
 H         4.179582         1.357610         3.485285
 H         4.328620        -0.399057         2.905446
 H         5.269809         0.788213         2.140269
 H         1.519607        -0.199085         2.643884
 H         1.536038         1.580441         2.270567
 H        -0.078735        -0.995618        -0.263591
 H        -0.696079         0.113289         0.961277
 H        -0.557962         0.675084        -0.687728
 H         3.993310         2.096880         0.009802
 H         4.142837        -0.976155         0.038257
