19
Iteration:  2816
 C         4.249160         0.863933         2.596911
 C         3.270205         0.564252         1.567462
 C         1.701849         0.623312         1.924296
 C         1.358242         0.453926         0.424677
 C        -0.096440         0.263318         0.086669
 O         1.961221         1.462929        -0.181409
 C         3.264327         1.117910         0.111764
 C         3.364222        -0.343596         0.375544
 O         2.067641        -0.707921        -0.024206
 H         4.253316         2.008857         2.778858
 H         4.100614         0.273835         3.487459
 H         5.229411         0.677212         2.095991
 H         1.349488        -0.230022         2.497395
 H         1.101932         1.444269         2.299534
 H        -0.136310        -0.782604        -0.279657
 H        -0.623603         0.275160         0.980052
 H        -0.327802         0.943754        -0.772544
 H         4.130893         1.773238        -0.199969
 H         4.042696        -1.010375        -0.076749
