19
Iteration:  2353charge 0 multiplicity 1
 C         4.351875         0.747666         2.611567
 C         3.238160         0.628387         1.581463
 C         1.809524         0.539080         1.929178
 C         1.281832         0.412797         0.405167
 C        -0.278842         0.367254         0.088490
 O         1.924943         1.400610        -0.302317
 C         3.242711         1.285883         0.197628
 C         3.398489        -0.263949         0.359576
 O         2.145527        -0.771734        -0.012050
 H         4.201013         1.621483         3.228147
 H         4.385046        -0.063010         3.365707
 H         5.378437         0.831939         2.279420
 H         1.601223        -0.481249         2.333386
 H         1.346532         1.436294         2.352511
 H        -0.771704        -0.164880         0.936106
 H        -0.726087         1.285026        -0.322422
 H        -0.249774        -0.300566        -0.795117
 H         3.887976         2.100854        -0.205193
 H         4.215627        -0.964584         0.342335
