19
Iteration:   585charge 0 multiplicity 1
 C         4.465103         0.047744         2.434057
 C         3.305479         0.315605         1.438297
 C         1.992375        -0.497624         1.635870
 C         1.302366         0.250859         0.421629
 C        -0.088821         0.140910         0.001179
 O         1.511894         1.631656         0.753533
 C         2.933959         1.697939         0.867753
 C         3.402364         0.611477        -0.040186
 O         2.269583         0.087785        -0.683537
 H         4.080439         0.378066         3.348809
 H         4.801170        -1.063627         2.350216
 H         5.430233         0.614165         2.255903
 H         2.293415        -1.552184         1.489759
 H         1.481505        -0.237494         2.587091
 H        -0.651502        -0.024682         0.975845
 H        -0.327542         1.151789        -0.463925
 H        -0.247371        -0.778998        -0.610624
 H         3.484316         2.615837         1.009933
 H         4.304573         0.593475        -0.590388
