19
Iteration:  4406
 C         4.353616         0.769318         2.572564
 C         3.224399         0.667337         1.587980
 C         1.782737         0.450547         1.821971
 C         1.292715         0.234097         0.363336
 C        -0.167005         0.291279         0.117807
 O         1.858451         1.538562        -0.148970
 C         3.247978         1.314586         0.237602
 C         3.374865        -0.253174         0.370706
 O         2.142872        -0.747174        -0.087533
 H         4.100469         1.746650         3.076408
 H         4.585979        -0.028169         3.332192
 H         5.333613         1.032556         2.104315
 H         1.690054        -0.476144         2.341564
 H         1.222937         1.116329         2.408724
 H        -0.370406         0.114983        -0.904879
 H        -0.876385        -0.307051         0.770459
 H        -0.441729         1.300575         0.410551
 H         4.139093         1.942159        -0.087240
 H         4.201087        -0.823064         0.031583
