19
Iteration:  3313charge 0 multiplicity 1
 C         4.323224         0.758218         2.577997
 C         3.270049         0.686068         1.604466
 C         1.728886         0.615025         1.860151
 C         1.252212         0.445703         0.412107
 C        -0.287269         0.117085         0.052323
 O         2.059790         1.546165        -0.245320
 C         3.355094         1.199336         0.180328
 C         3.403423        -0.268576         0.371373
 O         2.041195        -0.781753         0.035566
 H         4.013205         1.512924         3.261702
 H         4.604825        -0.186331         3.075071
 H         5.274734         1.214604         2.259859
 H         1.346817        -0.162426         2.500400
 H         1.334239         1.520839         2.256456
 H        -0.614831         0.428352        -0.974661
 H        -0.451137        -0.951277         0.112242
 H        -0.928651         0.762454         0.679895
 H         4.034429         1.977481        -0.168707
 H         4.147985        -1.009421         0.214378
