19
Iteration:  4445
 C         4.294227         0.640266         2.648891
 C         3.280925         0.582620         1.556670
 C         1.862666         0.496505         1.920363
 C         1.328990         0.375268         0.492629
 C        -0.115864         0.210655         0.032621
 O         1.783864         1.534003        -0.212457
 C         3.160312         1.370441         0.200407
 C         3.386040        -0.182301         0.236637
 O         2.152986        -0.690508         0.011135
 H         4.515889         1.699161         2.782964
 H         3.929519         0.175077         3.551130
 H         5.271119         0.273043         2.329066
 H         1.779949        -0.534011         2.416229
 H         1.479629         1.458683         2.412473
 H        -0.094760        -0.376623        -0.974187
 H        -0.699743        -0.504863         0.673724
 H        -0.635781         1.229393        -0.032185
 H         3.884469         2.030813        -0.295710
 H         4.129299        -0.890915        -0.131943
