19
Iteration:  4568
 C         4.327298         0.821482         2.576727
 C         3.235502         0.497377         1.600094
 C         1.755590         0.474920         1.915656
 C         1.308257         0.387633         0.414798
 C        -0.145964         0.242027         0.072013
 O         1.930049         1.531412        -0.152681
 C         3.244057         1.259115         0.190286
 C         3.384741        -0.202287         0.241345
 O         2.092418        -0.721067        -0.014234
 H         3.925193         1.270320         3.507009
 H         4.851343        -0.111898         2.846023
 H         5.087000         1.523962         2.216064
 H         1.369444        -0.442922         2.484209
 H         1.337229         1.435747         2.305147
 H        -0.279096         0.401733        -0.982523
 H        -0.465303        -0.842850         0.350411
 H        -0.793199         0.849438         0.729720
 H         4.012023         1.948930        -0.021472
 H         4.202353        -0.789335        -0.328070
