19
Iteration:  1908
 C         4.416896         0.475003         2.620308
 C         3.294111         0.593661         1.579651
 C         1.736817         0.327720         1.929953
 C         1.278451         0.374355         0.424476
 C        -0.212786         0.176184         0.061761
 O         1.797024         1.569267        -0.101687
 C         3.231915         1.406869         0.292394
 C         3.443550        -0.050594         0.233447
 O         2.169438        -0.553905        -0.152340
 H         4.382664         1.438760         3.216032
 H         4.088153        -0.456470         2.956018
 H         5.428702         0.382660         2.269299
 H         1.454055        -0.670455         2.335293
 H         1.255406         1.153609         2.480137
 H        -0.194356         1.106674        -0.520674
 H        -0.334200        -0.868450        -0.478600
 H        -0.931310         0.219551         0.903830
 H         3.759812         2.345052         0.033994
 H         4.280024        -0.552155        -0.267927
