19
Iteration:  3079charge 0 multiplicity 1
 C         4.362521         0.779442         2.724595
 C         3.267989         0.637600         1.501675
 C         1.805192         0.479822         1.856257
 C         1.322808         0.347520         0.447750
 C        -0.140631         0.345404        -0.012637
 O         1.819784         1.560743        -0.136624
 C         3.231625         1.283490         0.113622
 C         3.410678        -0.322592         0.250356
 O         2.091440        -0.803846         0.049810
 H         4.150312         1.794316         3.173356
 H         4.189776        -0.025873         3.439130
 H         5.402619         0.793515         2.389605
 H         1.482627        -0.509383         2.262967
 H         1.251742         1.271041         2.413556
 H        -0.798012        -0.037866         0.844884
 H        -0.559808         1.374229        -0.359819
 H        -0.301329        -0.407683        -0.791826
 H         4.090846         1.954001        -0.264899
 H         4.308242        -0.953910         0.268858
