19
Iteration:  3700
 C         4.206827         0.756680         2.668400
 C         3.317685         0.660549         1.481190
 C         1.800479         0.596376         1.972133
 C         1.335445         0.345065         0.457817
 C        -0.079230         0.205713         0.007355
 O         1.873327         1.534149        -0.165705
 C         3.279165         1.261576         0.092199
 C         3.373695        -0.253798         0.287471
 O         2.068268        -0.786657         0.045220
 H         4.118803         1.705698         3.218063
 H         4.121015        -0.072660         3.370473
 H         5.221902         0.740166         2.269380
 H         1.479111        -0.339588         2.456101
 H         1.477535         1.448840         2.560844
 H        -0.064803         0.456163        -1.139767
 H        -0.520020        -0.778680         0.160848
 H        -0.801221         0.967666         0.460012
 H         3.960286         1.986645        -0.381620
 H         4.053511        -0.968474        -0.076296
