19
Iteration:  1114
 C         4.420109         0.152270         2.498339
 C         3.331482         0.372394         1.464006
 C         1.861403        -0.152309         1.912524
 C         1.296024         0.285688         0.480938
 C        -0.056462         0.079087        -0.002279
 O         1.583994         1.767264         0.408622
 C         3.046968         1.675877         0.579775
 C         3.404941         0.371643        -0.061067
 O         2.244841        -0.240895        -0.443327
 H         4.225330         0.452664         3.504385
 H         4.412071        -1.020010         2.464333
 H         5.471752         0.585819         2.181284
 H         1.771795        -1.188494         2.202340
 H         1.322058         0.404966         2.695623
 H        -0.020342        -0.348676        -1.033976
 H        -0.732778        -0.433406         0.684964
 H        -0.484271         1.079547        -0.156154
 H         3.631263         2.634082         0.567461
 H         4.400244        -0.000063        -0.449797
