19
Iteration:  1404charge 0 multiplicity 1
 C         4.515937         0.352382         2.625355
 C         3.336805         0.457715         1.556966
 C         1.827830        -0.102260         1.934394
 C         1.241810         0.307750         0.495518
 C        -0.192838         0.232394        -0.028545
 O         1.670986         1.716096         0.194401
 C         3.061938         1.551780         0.487345
 C         3.483421         0.192351         0.064435
 O         2.210496        -0.428399        -0.462109
 H         4.347467         1.146988         3.462067
 H         4.371081        -0.631244         3.054449
 H         5.525203         0.319660         2.287965
 H         1.804828        -1.164157         2.238496
 H         1.332944         0.609741         2.645032
 H        -0.591902         1.245488        -0.183923
 H        -0.250145        -0.524094        -0.807123
 H        -0.883838        -0.082264         0.697055
 H         3.508367         2.526472         0.382817
 H         4.349687         0.036246        -0.554522
