19
Iteration:  2752
 C         4.270822         0.771036         2.521879
 C         3.137605         0.619877         1.667318
 C         1.728044         0.619468         1.908389
 C         1.303287         0.303025         0.520700
 C        -0.092311         0.400352         0.098754
 O         1.974279         1.428890        -0.342584
 C         3.261101         1.230994         0.104133
 C         3.394387        -0.230296         0.427742
 O         2.133971        -0.853756         0.001042
 H         4.123240         1.529708         3.346782
 H         4.614545        -0.100767         3.085687
 H         5.146691         1.284062         2.081101
 H         1.454084        -0.233275         2.524964
 H         1.232560         1.484867         2.308264
 H        -0.433912        -0.616496        -0.221177
 H        -0.774680         0.765010         0.792480
 H        -0.208915         0.960699        -0.860438
 H         3.932453         2.081001        -0.232625
 H         4.068845        -0.968722         0.217423
