19
Iteration:  1235
 C         4.368433         0.372687         2.527738
 C         3.263846         0.319167         1.519184
 C         1.904482        -0.114652         1.806512
 C         1.314500         0.363224         0.521102
 C        -0.118993         0.136050         0.018173
 O         1.722523         1.794779         0.395767
 C         3.079438         1.588662         0.610102
 C         3.461506         0.168954        -0.004953
 O         2.136212        -0.330157        -0.522264
 H         4.244191         1.205803         3.249356
 H         4.400572        -0.725118         2.875749
 H         5.393794         0.648338         2.094657
 H         1.942809        -1.186563         1.930701
 H         1.533335         0.278678         2.734851
 H        -0.927706        -0.005254         0.737167
 H        -0.432494         0.799422        -0.773265
 H        -0.166103        -0.852604        -0.517600
 H         3.607359         2.453760         0.910305
 H         4.299150        -0.059032        -0.621346
