19
Iteration:  4508
 C         4.326623         0.760686         2.550225
 C         3.225487         0.561527         1.581560
 C         1.738966         0.521028         1.905642
 C         1.325105         0.411502         0.429132
 C        -0.128664         0.243009         0.164150
 O         1.901787         1.533361        -0.214375
 C         3.239755         1.333983         0.266832
 C         3.347984        -0.250298         0.278185
 O         2.154602        -0.802432        -0.097972
 H         4.083535         1.671578         3.100880
 H         4.345341        -0.002669         3.350482
 H         5.337484         0.750146         2.114067
 H         1.402949        -0.429383         2.351794
 H         1.147958         1.257652         2.486271
 H        -0.255948         0.398826        -0.983672
 H        -0.208103        -0.799201         0.405723
 H        -0.860172         0.943091         0.643514
 H         3.869964         2.206289         0.062622
 H         4.253344        -0.698170        -0.080513
