19
Iteration:  4365
 C         4.348923         0.877439         2.651925
 C         3.334186         0.467664         1.579336
 C         1.814432         0.568101         1.893291
 C         1.275554         0.481982         0.428820
 C        -0.191048         0.080413         0.019623
 O         1.931468         1.573865        -0.183318
 C         3.314713         1.205025         0.295065
 C         3.313933        -0.285988         0.235316
 O         1.999413        -0.709613        -0.058086
 H         3.809763         1.442194         3.390646
 H         4.807599         0.036730         3.167063
 H         5.163190         1.439021         2.205603
 H         1.592354        -0.381853         2.447185
 H         1.483233         1.471438         2.517258
 H        -0.382024         0.353808        -1.071365
 H        -0.271980        -0.994914         0.279227
 H        -0.812016         0.785896         0.610517
 H         3.984684         2.022635        -0.081823
 H         4.119913        -0.767144        -0.277109
