19
Iteration:   926charge 0 multiplicity 1
 C         4.444717         0.146211         2.466303
 C         3.326507         0.279445         1.448856
 C         1.857157        -0.255747         1.781851
 C         1.310968         0.327719         0.489023
 C        -0.100838         0.045114        -0.061625
 O         1.603803         1.798297         0.593019
 C         3.051007         1.605654         0.708525
 C         3.415479         0.408641        -0.076673
 O         2.228951        -0.080200        -0.500817
 H         4.152603         0.594067         3.365940
 H         4.699774        -0.917350         2.755512
 H         5.344662         0.770666         2.146379
 H         1.794774        -1.319726         1.525614
 H         1.490895        -0.061325         2.778225
 H        -0.153426         0.183708        -1.121171
 H        -0.244861        -1.041095         0.064484
 H        -0.890107         0.628843         0.449311
 H         3.533882         2.589756         0.951264
 H         4.200369         0.407784        -0.887571
