19
Iteration:  1356charge 0 multiplicity 1
 C         4.394176         0.456210         2.563279
 C         3.247173         0.285613         1.570168
 C         1.770625        -0.043328         1.811423
 C         1.313235         0.374034         0.385894
 C        -0.152093         0.106327         0.128129
 O         1.753869         1.778070         0.307799
 C         3.133091         1.458454         0.574858
 C         3.428530         0.151723         0.011874
 O         2.244754        -0.309519        -0.490705
 H         3.979145         1.079911         3.416276
 H         4.858166        -0.542402         2.859247
 H         5.299512         0.956247         2.077133
 H         1.496322        -1.107900         1.849856
 H         1.389099         0.563727         2.626454
 H        -0.397851         0.183190        -0.938463
 H        -0.328981        -0.928217         0.523844
 H        -0.955729         0.837307         0.480682
 H         3.776515         2.382202         0.611363
 H         4.208307        -0.392102        -0.559613
