19
Iteration:  4011charge 0 multiplicity 1
 C         4.283592         0.653642         2.611039
 C         3.201547         0.644814         1.589855
 C         1.705541         0.588752         1.892454
 C         1.294055         0.315718         0.438346
 C        -0.196646         0.219117         0.056729
 O         1.927068         1.528127        -0.216596
 C         3.269979         1.321102         0.152110
 C         3.457653        -0.196037         0.266720
 O         2.177183        -0.748571         0.048305
 H         4.177603         1.340871         3.426536
 H         4.548603        -0.315922         3.026412
 H         5.218161         1.037291         2.166151
 H         1.464287        -0.325402         2.458252
 H         1.281782         1.474875         2.356552
 H        -0.442780        -0.154439        -0.948527
 H        -0.764192        -0.415879         0.738120
 H        -0.810854         1.157439         0.096608
 H         3.974979         1.978422        -0.325647
 H         4.418435        -0.841898         0.177580
