19
Iteration:  2606charge 0 multiplicity 1
 C         4.310935         0.853984         2.593378
 C         3.251985         0.515026         1.610292
 C         1.776228         0.538918         1.856015
 C         1.307334         0.438302         0.439031
 C        -0.089326         0.238704         0.053415
 O         1.866679         1.580037        -0.199547
 C         3.315504         1.123300         0.161401
 C         3.394547        -0.369505         0.333488
 O         2.037110        -0.720228         0.011864
 H         4.061086         1.745495         3.278102
 H         4.429580         0.057648         3.394516
 H         5.374005         1.044831         2.277151
 H         1.152391        -0.174735         2.406370
 H         1.607319         1.553715         2.220040
 H        -0.823371         0.190686         0.837818
 H        -0.476637         1.146892        -0.505585
 H        -0.233587        -0.543194        -0.653601
 H         3.906174         2.008376        -0.159332
 H         4.254364        -0.885177        -0.089459
