19
Iteration:   282
 C         4.699600        -0.151903         2.353625
 C         3.399608         0.260263         1.432320
 C         2.100591        -0.520653         1.428314
 C         1.300988         0.280968         0.353295
 C        -0.028242         0.026788        -0.134771
 O         1.344237         1.667745         1.050977
 C         2.813819         1.665626         1.078746
 C         3.358306         0.747046        -0.040586
 O         2.181993         0.281886        -0.696885
 H         4.312797        -0.236229         3.374518
 H         5.175548        -0.977970         1.920646
 H         5.594063         0.551603         2.488694
 H         1.975878        -1.638334         1.334695
 H         1.554207        -0.192024         2.392086
 H         0.090135         0.123045        -1.216261
 H        -0.531642        -0.948846         0.059502
 H        -0.723413         0.808609         0.221114
 H         3.139019         2.674426         1.360238
 H         4.159980         0.961767        -0.664440
