19
Iteration:  2888
 C         4.303602         0.752384         2.610819
 C         3.215435         0.679917         1.533446
 C         1.753569         0.656227         1.922374
 C         1.312543         0.360180         0.452971
 C        -0.133357         0.141470         0.013006
 O         1.993107         1.572565        -0.222310
 C         3.294028         1.241192         0.119921
 C         3.372358        -0.343931         0.367866
 O         2.025383        -0.763068         0.042106
 H         4.227757         1.703282         3.073541
 H         3.990336        -0.045880         3.309919
 H         5.301322         0.628575         2.191981
 H         1.608280        -0.114285         2.706290
 H         1.469999         1.607890         2.409099
 H        -0.413563        -0.899871        -0.096153
 H        -0.779188         0.578640         0.837392
 H        -0.276428         0.641029        -0.931228
 H         3.971538         2.076938        -0.250060
 H         4.106416        -1.005226        -0.046353
