19
Iteration:  3302charge 0 multiplicity 1
 C         4.328600         0.788859         2.671159
 C         3.242353         0.553320         1.558619
 C         1.790989         0.632771         1.937785
 C         1.319179         0.392946         0.404949
 C        -0.195524         0.222679        -0.014116
 O         1.953434         1.452027        -0.291607
 C         3.301126         1.295868         0.178731
 C         3.327593        -0.233389         0.282748
 O         2.045773        -0.768147         0.103147
 H         3.919229         1.447377         3.404586
 H         4.606388        -0.111582         3.248822
 H         5.200979         1.227494         2.163836
 H         1.665353        -0.226410         2.567684
 H         1.499807         1.558453         2.367429
 H        -0.365044         0.461000        -1.093258
 H        -0.438462        -0.807515         0.195400
 H        -0.873056         0.746957         0.689483
 H         4.189429         1.776364        -0.245581
 H         4.153946        -0.880528         0.043374
