19
Iteration:  2867charge 0 multiplicity 1
 C         4.302782         0.682437         2.626446
 C         3.231889         0.695729         1.612721
 C         1.763759         0.602408         1.835415
 C         1.267765         0.482458         0.462721
 C        -0.117404         0.282290         0.073700
 O         1.874129         1.399290        -0.304528
 C         3.246505         1.246463         0.130360
 C         3.369931        -0.169585         0.385780
 O         2.159008        -0.825062         0.040390
 H         4.573657         1.665303         2.976571
 H         3.982980         0.080738         3.497290
 H         5.243719         0.298434         2.196115
 H         1.468687        -0.230678         2.510688
 H         1.426505         1.506629         2.426147
 H        -0.219252        -0.770377        -0.243376
 H        -0.804307         0.555600         0.940054
 H        -0.240423         0.909224        -0.813909
 H         4.056794         1.802822        -0.471183
 H         4.116586        -0.901130         0.246435
