19
Iteration:   758
 C         4.450220         0.130466         2.393833
 C         3.266334         0.298676         1.550936
 C         1.968907        -0.357026         1.667014
 C         1.335131         0.379989         0.352230
 C        -0.128233         0.062464         0.060668
 O         1.546575         1.754670         0.604299
 C         2.977994         1.594067         0.910931
 C         3.417996         0.444977         0.014836
 O         2.294097        -0.017790        -0.690973
 H         4.265095         0.449087         3.505306
 H         4.714490        -1.004113         2.404570
 H         5.245309         0.731876         1.914947
 H         2.094468        -1.447577         1.604501
 H         1.173487        -0.154600         2.437421
 H        -0.466212         1.124943         0.205525
 H        -0.296654        -0.338145        -0.975360
 H        -0.494428        -0.638886         0.825258
 H         3.361707         2.624274         1.102996
 H         4.404008         0.231098        -0.471767
