19
Iteration:  1478charge 0 multiplicity 1
 C         4.468463         0.375911         2.607132
 C         3.267482         0.408058         1.535613
 C         1.738907         0.074126         1.803265
 C         1.303094         0.369604         0.349647
 C        -0.163951         0.083479         0.105708
 O         1.734462         1.732673         0.166413
 C         3.154057         1.547898         0.539570
 C         3.503817         0.072318         0.105040
 O         2.172766        -0.383639        -0.355505
 H         4.153336         0.763533         3.667012
 H         4.721661        -0.687704         2.810050
 H         5.370096         0.846151         2.214563
 H         1.329430        -0.896257         2.083777
 H         1.333606         0.915141         2.370143
 H        -0.677371        -0.326701         0.994547
 H        -0.701857         1.018703        -0.337684
 H        -0.381927        -0.659904        -0.650719
 H         3.756482         2.457763         0.515914
 H         4.237739        -0.198001        -0.626801
