19
Iteration:   278
 C         4.702654        -0.113698         2.334939
 C         3.407220         0.275245         1.432342
 C         2.089114        -0.542421         1.394011
 C         1.331357         0.290020         0.337604
 C        -0.062779         0.032492        -0.111485
 O         1.361681         1.660363         1.040900
 C         2.800380         1.648997         1.111866
 C         3.340157         0.774104         0.006525
 O         2.191176         0.253550        -0.701428
 H         4.288160        -0.280387         3.306995
 H         5.141032        -1.124822         1.969410
 H         5.514979         0.568738         2.472834
 H         1.977379        -1.585544         1.203354
 H         1.562690        -0.105099         2.285992
 H         0.095082         0.003358        -1.202455
 H        -0.580770        -0.862231         0.189369
 H        -0.689697         0.879737         0.160046
 H         3.189539         2.650963         1.373160
 H         4.261250         0.873798        -0.671235
