19
Iteration:  2518charge 0 multiplicity 1
 C         4.345255         0.755051         2.652763
 C         3.272671         0.695734         1.555871
 C         1.725966         0.600453         1.865123
 C         1.269244         0.278124         0.494414
 C        -0.235031         0.252552         0.074953
 O         1.992552         1.505326        -0.237318
 C         3.344736         1.247565         0.155956
 C         3.358157        -0.322828         0.338066
 O         2.053123        -0.729589        -0.023713
 H         4.182313         1.830996         2.918169
 H         4.163275         0.070186         3.542205
 H         5.373694         0.689739         2.204475
 H         1.568047        -0.247211         2.566048
 H         1.174708         1.516128         2.147014
 H        -0.731321        -0.654366         0.449621
 H        -0.671996         1.210427         0.327452
 H        -0.148046         0.173353        -1.045940
 H         4.127790         1.902252        -0.373027
 H         4.179524        -1.013434         0.360308
