19
Iteration:   530
 C         4.475647         0.062570         2.406843
 C         3.287755         0.213660         1.465061
 C         1.996092        -0.477646         1.554168
 C         1.284810         0.325636         0.404899
 C        -0.096136         0.028353         0.020509
 O         1.569747         1.694798         0.756795
 C         2.913409         1.654017         0.989428
 C         3.456337         0.553632        -0.023233
 O         2.206753         0.228398        -0.694634
 H         4.380477         0.309000         3.442924
 H         4.849442        -1.059010         2.428736
 H         5.261762         0.713150         1.918504
 H         2.004660        -1.574406         1.357100
 H         1.472112        -0.240013         2.526768
 H        -0.585144         0.929675        -0.405498
 H         0.051749        -0.630292        -0.889203
 H        -0.580371        -0.590225         0.827568
 H         3.474171         2.539168         1.314773
 H         4.338749         0.527936        -0.748634
