19
Iteration:   823
 C         4.450692         0.031187         2.390020
 C         3.259511         0.313875         1.505325
 C         1.908593        -0.203301         1.808990
 C         1.320066         0.324034         0.461443
 C        -0.061714        -0.071156        -0.070003
 O         1.623434         1.729005         0.625369
 C         3.044093         1.701923         0.776453
 C         3.377674         0.467043        -0.072212
 O         2.192486         0.001806        -0.577863
 H         4.024175         0.161424         3.439684
 H         4.909229        -0.980602         2.338541
 H         5.329127         0.666429         2.265289
 H         2.046525        -1.288930         1.949348
 H         1.446766         0.212485         2.739624
 H        -0.734528        -0.625014         0.619053
 H        -0.600986         0.858756        -0.309387
 H        -0.023435        -0.403854        -1.107129
 H         3.448894         2.732457         0.845620
 H         4.422487         0.222088        -0.564562
