19
Iteration:  4932
 C         4.350884         0.759286         2.698472
 C         3.284758         0.488047         1.565452
 C         1.728060         0.661641         1.915358
 C         1.218101         0.508264         0.427884
 C        -0.200605         0.013671         0.126888
 O         1.975262         1.644066        -0.277249
 C         3.274149         1.218657         0.171424
 C         3.347758        -0.276675         0.261672
 O         2.097543        -0.703125        -0.051693
 H         4.111001         1.512456         3.429570
 H         4.675775        -0.170977         3.132312
 H         5.199281         1.181300         2.156827
 H         1.278054        -0.054458         2.741021
 H         1.517485         1.685223         2.438277
 H        -0.349259         0.002313        -0.930203
 H        -0.117958        -1.116200         0.369804
 H        -0.909624         0.585051         0.724812
 H         4.202402         1.716774        -0.205195
 H         4.108376        -0.891867        -0.040454
