19
Iteration:  3905charge 0 multiplicity 1
 C         4.316957         0.939961         2.595016
 C         3.235929         0.631927         1.586221
 C         1.716588         0.383897         1.924746
 C         1.298960         0.355279         0.471972
 C        -0.245497         0.344429        -0.007506
 O         1.894681         1.487550        -0.098187
 C         3.364718         1.228700         0.209475
 C         3.431783        -0.302984         0.310063
 O         2.130347        -0.774981        -0.104854
 H         4.174097         2.034306         2.810744
 H         4.322829         0.427655         3.600839
 H         5.251541         0.656416         2.081795
 H         1.576071        -0.600494         2.467335
 H         1.409929         1.259602         2.521388
 H        -0.363952         0.417260        -1.122178
 H        -0.757201        -0.567389         0.139047
 H        -0.752228         1.072184         0.621076
 H         3.938990         1.904583        -0.416317
 H         4.287612        -1.011815         0.034030
