19
Iteration:  1866
 C         4.342870         0.646871         2.582207
 C         3.262639         0.420326         1.578660
 C         1.733931         0.299291         1.835492
 C         1.286313         0.384751         0.484539
 C        -0.157870         0.167490         0.079101
 O         1.907154         1.667204         0.042968
 C         3.215284         1.390554         0.326618
 C         3.446353        -0.165720         0.151352
 O         2.076087        -0.555123        -0.261068
 H         3.925997         1.217941         3.482989
 H         4.817403        -0.315658         2.913431
 H         5.259910         1.283319         2.381325
 H         1.318421        -0.568653         2.415931
 H         1.481086         1.216455         2.414634
 H        -0.278645         0.012749        -1.007172
 H        -0.411250        -0.793441         0.682608
 H        -0.858386         0.907986         0.432237
 H         4.034231         2.122461         0.198675
 H         4.342079        -0.617405        -0.317980
