19
Iteration:  1717
 C         4.385779         0.465195         2.663372
 C         3.307019         0.526363         1.629268
 C         1.822386         0.108310         1.949582
 C         1.338005         0.317864         0.418089
 C        -0.174883         0.289324         0.021820
 O         1.715804         1.655523         0.060416
 C         3.105897         1.457995         0.303016
 C         3.420149         0.037743         0.077442
 O         2.210770        -0.579951        -0.273696
 H         4.445138         1.257170         3.438817
 H         4.362129        -0.493087         3.253045
 H         5.371855         0.621985         2.089493
 H         1.594354        -0.804453         2.494071
 H         1.449416         0.999649         2.445576
 H        -0.803926         0.360743         1.008923
 H        -0.278631         1.047851        -0.760771
 H        -0.517809        -0.666258        -0.374596
 H         3.698822         2.298898         0.070200
 H         4.317294        -0.283026        -0.437983
