19
Iteration:  3355charge 0 multiplicity 1
 C         4.342710         0.736523         2.610000
 C         3.168096         0.576733         1.604623
 C         1.707468         0.675293         1.904233
 C         1.298790         0.429067         0.384777
 C        -0.183804         0.207975         0.118747
 O         1.981842         1.424177        -0.327674
 C         3.287215         1.282490         0.239629
 C         3.399616        -0.243515         0.332106
 O         2.104866        -0.758772        -0.008761
 H         4.417462         1.678423         3.118293
 H         4.180295        -0.059846         3.297001
 H         5.308701         0.541032         2.138316
 H         1.276431        -0.134400         2.503326
 H         1.502041         1.666218         2.288997
 H        -0.399119         0.267794        -0.986872
 H        -0.320909        -0.844587         0.337864
 H        -0.934387         0.841969         0.693767
 H         3.958226         2.138962         0.128439
 H         4.303713        -0.747889         0.095246
