19
Iteration:  4121
 C         4.322980         0.733703         2.640102
 C         3.277541         0.616191         1.570045
 C         1.804137         0.561694         1.828428
 C         1.308062         0.374267         0.435446
 C        -0.211756         0.198540         0.043621
 O         1.902263         1.528958        -0.242546
 C         3.220299         1.308937         0.185424
 C         3.385404        -0.197577         0.278444
 O         2.126258        -0.808327         0.080081
 H         4.349131         1.698428         3.085040
 H         4.043886        -0.001884         3.395027
 H         5.284483         0.497009         2.222189
 H         1.545028        -0.357428         2.386269
 H         1.376115         1.368203         2.399993
 H        -0.342386         0.492433        -1.031144
 H        -0.586023        -0.755766         0.269288
 H        -0.659048         0.857328         0.785444
 H         3.912858         2.156706        -0.087149
 H         4.260364        -0.664000        -0.038617
