19
Iteration:  2944
 C         4.274666         0.827705         2.508708
 C         3.160084         0.631920         1.619693
 C         1.681048         0.446465         1.852218
 C         1.313313         0.302552         0.445478
 C        -0.157927         0.376703         0.104293
 O         1.992628         1.461225        -0.237663
 C         3.312634         1.264805         0.181054
 C         3.412566        -0.271151         0.371730
 O         2.094349        -0.762511         0.013576
 H         3.902926         1.422244         3.326515
 H         4.651347        -0.000954         3.080746
 H         5.179840         1.353987         2.238469
 H         1.754231        -0.410008         2.572752
 H         1.272150         1.355198         2.367328
 H        -0.792862        -0.296060         0.719615
 H        -0.486066         1.407163         0.067154
 H        -0.279216         0.042724        -0.983215
 H         4.075527         1.923371        -0.386738
 H         4.292778        -0.959084         0.150387
