19
Iteration:   122
 C         4.571208        -0.048040         2.138572
 C         3.251245         0.164089         1.490577
 C         2.020371        -0.713428         1.360934
 C         1.407834         0.311766         0.285432
 C        -0.016176         0.069537         0.026975
 O         1.433998         1.583831         0.949305
 C         2.780489         1.606568         1.290316
 C         3.386346         0.874611         0.076620
 O         2.278377         0.408952        -0.764802
 H         4.412861        -0.228271         3.175263
 H         5.171746        -0.794136         1.653575
 H         5.173979         0.818931         2.082191
 H         2.197442        -1.746800         0.990962
 H         1.422999        -0.865879         2.190224
 H        -0.550094         0.993899         0.088190
 H        -0.208027        -0.479040        -0.907222
 H        -0.348721        -0.468147         0.903795
 H         3.072632         2.548839         1.822204
 H         4.346822         1.174456        -0.401606
