19
Iteration:  2875
 C         4.248212         0.713195         2.573937
 C         3.258831         0.689475         1.542420
 C         1.790357         0.641238         1.938366
 C         1.297613         0.452978         0.476124
 C        -0.065025         0.257525         0.070787
 O         1.864942         1.481673        -0.282871
 C         3.264906         1.252522         0.136227
 C         3.330787        -0.269729         0.366873
 O         2.123145        -0.826841         0.021731
 H         4.476227         1.638219         3.095259
 H         4.049848         0.007755         3.423993
 H         5.246356         0.354896         2.313234
 H         1.476479        -0.264041         2.455265
 H         1.215634         1.512883         2.232356
 H        -0.019569        -0.790026        -0.158980
 H        -0.913410         0.527675         0.747530
 H        -0.275062         0.769405        -0.822628
 H         4.105673         1.737277        -0.275333
 H         4.237477        -0.844111         0.473582
