19
Iteration:  2277charge 0 multiplicity 1
 C         4.369816         0.813539         2.673297
 C         3.259157         0.581901         1.602281
 C         1.746317         0.514295         1.903103
 C         1.279057         0.367589         0.449770
 C        -0.121739         0.163162         0.081598
 O         1.970352         1.604777        -0.258750
 C         3.326585         1.287553         0.211377
 C         3.292682        -0.283746         0.219399
 O         1.997109        -0.766414        -0.032736
 H         4.303819         1.863962         2.997973
 H         4.252458         0.153002         3.575588
 H         5.372839         0.668064         2.288718
 H         1.458267        -0.335351         2.579128
 H         1.435869         1.484116         2.380044
 H        -0.820410         0.578734         0.861520
 H        -0.325675         0.931565        -0.769167
 H        -0.278720        -0.893309        -0.213913
 H         4.238347         1.863315        -0.213839
 H         3.978170        -1.087040         0.049869
