19
Iteration:  1359charge 0 multiplicity 1
 C         4.412185         0.469545         2.544805
 C         3.234837         0.304759         1.566468
 C         1.755842        -0.063951         1.819797
 C         1.325392         0.371320         0.378520
 C        -0.141822         0.130562         0.133115
 O         1.759679         1.794854         0.324350
 C         3.109327         1.479934         0.567207
 C         3.423418         0.122094         0.004230
 O         2.255277        -0.332501        -0.493775
 H         3.941419         1.085035         3.427228
 H         4.753906        -0.532291         2.860571
 H         5.255985         0.913657         2.083878
 H         1.442526        -1.136885         1.858842
 H         1.400499         0.559533         2.671413
 H        -0.443534         0.246793        -0.914837
 H        -0.261306        -0.965399         0.438475
 H        -0.936164         0.725636         0.510539
 H         3.807177         2.293330         0.665864
 H         4.290156        -0.359699        -0.494012
