19
Iteration:  1931
 C         4.326264         0.474645         2.651300
 C         3.255949         0.619749         1.567601
 C         1.830177         0.349545         1.894354
 C         1.298202         0.323268         0.432519
 C        -0.163602         0.283929         0.071815
 O         1.820653         1.604900        -0.059207
 C         3.109772         1.465119         0.294777
 C         3.445221         0.029524         0.236031
 O         2.186853        -0.792504        -0.194226
 H         4.635817         1.465723         2.951304
 H         4.046674        -0.306569         3.241191
 H         5.185623         0.124907         2.063185
 H         1.543732        -0.585680         2.434793
 H         1.424988         1.272311         2.352119
 H        -0.473816         1.336445        -0.038967
 H        -0.236255        -0.479984        -0.771042
 H        -0.689226        -0.234307         0.850507
 H         3.778334         2.286820        -0.126901
 H         4.357931        -0.449742        -0.114542
