19
Iteration:  2337
 C         4.379972         0.833846         2.633187
 C         3.238143         0.674970         1.608212
 C         1.703916         0.418377         1.891185
 C         1.274843         0.289037         0.422365
 C        -0.106057         0.351732         0.060085
 O         1.917341         1.496736        -0.288951
 C         3.265420         1.243677         0.188680
 C         3.392569        -0.215650         0.387831
 O         2.069739        -0.801251        -0.022246
 H         4.426508         1.865308         3.084751
 H         4.237930         0.013541         3.376672
 H         5.324964         0.656807         2.062017
 H         1.467684        -0.472419         2.482804
 H         1.252260         1.197729         2.540278
 H        -0.751667         0.349743         0.931528
 H        -0.156804         1.436504        -0.139530
 H        -0.656690        -0.326183        -0.581059
 H         4.055416         1.771237        -0.288861
 H         4.140493        -0.804870        -0.224204
