19
Iteration:  2311charge 0 multiplicity 1
 C         4.298182         0.904508         2.539551
 C         3.253371         0.533253         1.525153
 C         1.749151         0.484976         1.929319
 C         1.270350         0.403011         0.447613
 C        -0.181739         0.306788         0.033254
 O         1.934129         1.551367        -0.114260
 C         3.343930         1.231928         0.268880
 C         3.361910        -0.332226         0.287830
 O         2.104947        -0.820659        -0.078424
 H         4.285904         2.015487         2.685284
 H         4.115622         0.437344         3.488276
 H         5.320646         0.631921         2.219173
 H         1.571662        -0.389750         2.561608
 H         1.389616         1.413585         2.407142
 H        -0.848745         0.374284         0.940072
 H        -0.356706         1.159627        -0.618112
 H        -0.517600        -0.599760        -0.509947
 H         4.087450         1.974155        -0.100656
 H         4.106207        -1.128963         0.196284
