19
Iteration:  3696charge 0 multiplicity 1
 C         4.208070         0.728241         2.613341
 C         3.275362         0.635148         1.481554
 C         1.813956         0.587153         1.965685
 C         1.343772         0.369310         0.446243
 C        -0.096939         0.209756         0.030843
 O         1.874729         1.527524        -0.208190
 C         3.260162         1.280564         0.121169
 C         3.394577        -0.237395         0.340124
 O         2.089221        -0.764911         0.052543
 H         4.090059         1.643590         3.192773
 H         4.111661        -0.105419         3.339632
 H         5.300449         0.757151         2.367767
 H         1.520165        -0.329253         2.469798
 H         1.402832         1.501101         2.461285
 H        -0.168926         0.372967        -1.043043
 H        -0.525446        -0.819665         0.182642
 H        -0.804975         0.964545         0.438997
 H         4.033037         1.905246        -0.284125
 H         4.150759        -0.991831        -0.055577
