19
Iteration:  3663charge 0 multiplicity 1
 C         4.461352         0.668042         2.622421
 C         3.080241         0.668674         1.775270
 C         1.610931         0.681853         1.855710
 C         1.368359         0.336572         0.270850
 C        -0.200553         0.162820         0.193212
 O         1.968161         1.475669        -0.299492
 C         3.293725         1.343466         0.183449
 C         3.409537        -0.212854         0.375085
 O         2.117380        -0.749044        -0.100239
 H         4.392657         1.449097         3.372913
 H         4.555272        -0.315518         3.118524
 H         5.409625         0.845507         2.104506
 H         1.333835        -0.249058         2.326739
 H         0.869848         1.497955         2.028393
 H        -0.633945        -0.088455        -0.754216
 H        -0.522427        -0.714112         0.906548
 H        -0.617332         1.132403         0.536077
 H         4.190301         1.887331        -0.059066
 H         4.291411        -0.878678         0.062971
