19
Iteration:  1346charge 0 multiplicity 1
 C         4.373131         0.390133         2.583564
 C         3.304358         0.287168         1.559921
 C         1.847344        -0.013135         1.770900
 C         1.263850         0.402434         0.432470
 C        -0.186618         0.068283         0.074835
 O         1.751456         1.703822         0.263139
 C         3.169550         1.515850         0.602238
 C         3.460795         0.145309         0.044493
 O         2.141627        -0.267521        -0.495173
 H         4.140097         0.996499         3.555613
 H         4.867197        -0.533657         3.027168
 H         5.114925         1.095657         2.124024
 H         1.745525        -1.073914         2.085356
 H         1.284994         0.568497         2.507669
 H        -0.206775        -0.186973        -0.979522
 H        -0.643477        -0.782982         0.671186
 H        -0.604255         1.008877         0.532857
 H         3.760131         2.472269         0.492507
 H         4.377555        -0.103907        -0.561898
