19
Iteration:  3720
 C         4.375711         0.928718         2.780512
 C         3.324674         0.664481         1.557371
 C         1.889080         0.484562         1.938467
 C         1.279650         0.353236         0.498448
 C        -0.134725         0.275365        -0.085746
 O         1.895481         1.509978        -0.082288
 C         3.219126         1.156075         0.149931
 C         3.308111        -0.271302         0.125435
 O         2.009455        -0.804131        -0.023930
 H         4.216236         1.912238         3.223622
 H         4.148058         0.285912         3.654623
 H         5.459403         0.870899         2.750309
 H         1.672319        -0.325844         2.660396
 H         1.295940         1.383528         2.158471
 H        -0.029062         0.529095        -1.256996
 H        -0.522694        -0.766522        -0.082288
 H        -1.079970         0.952012         0.187479
 H         4.023838         1.647997        -0.386086
 H         4.115545        -0.908579        -0.212370
