19
Iteration:  3434
 C         4.347274         0.894302         2.535224
 C         3.214675         0.480001         1.658427
 C         1.672274         0.492383         1.810258
 C         1.303730         0.412116         0.356051
 C        -0.178640         0.281903         0.100108
 O         1.986193         1.619959        -0.232500
 C         3.303267         1.261834         0.316016
 C         3.380176        -0.393199         0.369991
 O         2.107485        -0.823414        -0.051425
 H         4.033523         1.888513         2.879672
 H         4.646861         0.426478         3.503593
 H         5.270272         0.900898         1.940171
 H         1.099044        -0.198394         2.390100
 H         1.331024         1.458013         2.158716
 H        -0.543902        -0.425826        -0.710965
 H        -0.488729        -0.365800         1.061479
 H        -0.787346         1.179313         0.096525
 H         3.989673         2.079456        -0.019195
 H         4.361291        -0.873620         0.053235
