19
Iteration:  2399charge 0 multiplicity 1
 C         4.335639         0.700786         2.705311
 C         3.297495         0.688142         1.592170
 C         1.774610         0.687878         1.842677
 C         1.281835         0.493233         0.468665
 C        -0.152437         0.125858         0.072608
 O         1.950935         1.521262        -0.280496
 C         3.304035         1.208994         0.093490
 C         3.308675        -0.296806         0.387029
 O         1.993160        -0.777311        -0.026200
 H         4.149289         1.333907         3.607912
 H         4.542352        -0.271261         3.031918
 H         5.294758         1.042638         2.273616
 H         1.488136        -0.108234         2.507758
 H         1.512260         1.674139         2.177931
 H        -0.234675        -0.952636         0.347240
 H        -0.889572         0.710245         0.562266
 H        -0.211713         0.355299        -1.018027
 H         4.058625         1.873379        -0.227527
 H         4.300494        -0.883564         0.262519
