19
Iteration:  3726
 C         4.378697         0.967282         2.770383
 C         3.380762         0.617914         1.559020
 C         1.892502         0.474361         1.992831
 C         1.306232         0.325317         0.430996
 C        -0.197219         0.298964        -0.100792
 O         1.863783         1.513772        -0.117974
 C         3.234815         1.164791         0.219233
 C         3.306617        -0.300697         0.185416
 O         2.015114        -0.783193        -0.059975
 H         4.183031         2.035543         3.044513
 H         4.129004         0.363255         3.656400
 H         5.479311         0.865581         2.554486
 H         1.486349        -0.356430         2.579238
 H         1.405994         1.396073         2.410045
 H        -0.011598         0.512804        -1.085314
 H        -0.557053        -0.730688        -0.069171
 H        -0.982793         0.889922         0.193878
 H         4.062457         1.716700        -0.211933
 H         4.032321        -0.989792        -0.340649
