19
Iteration:  1809charge 0 multiplicity 1
 C         4.361894         0.516096         2.580859
 C         3.213982         0.513978         1.588085
 C         1.807741         0.208446         1.947487
 C         1.306040         0.364873         0.466702
 C        -0.206356         0.237325         0.047189
 O         1.757870         1.643617         0.017912
 C         3.227435         1.440056         0.275820
 C         3.442678        -0.021101         0.163761
 O         2.225561        -0.628981        -0.227956
 H         3.996583         1.338811         3.393894
 H         4.417308        -0.461516         3.065918
 H         5.264570         0.925428         2.111261
 H         1.532892        -0.855153         2.103058
 H         1.366828         0.899608         2.689347
 H        -0.457424        -0.741951        -0.399227
 H        -0.706443         0.621566         1.025072
 H        -0.342131         1.146283        -0.638204
 H         3.895266         2.181113        -0.050026
 H         4.375658        -0.425252        -0.212829
