19
Iteration:  3066
 C         4.276294         0.718434         2.564278
 C         3.324684         0.661246         1.522705
 C         1.710171         0.492091         1.878281
 C         1.289393         0.327206         0.417103
 C        -0.136455         0.306165         0.051273
 O         1.883988         1.536558        -0.144303
 C         3.230659         1.287610         0.163733
 C         3.362792        -0.177079         0.353164
 O         2.185772        -0.851485         0.023699
 H         4.308603         1.701095         3.064869
 H         3.873437         0.076695         3.325991
 H         5.287646         0.369255         2.415214
 H         1.672566        -0.401207         2.579738
 H         1.355647         1.457133         2.365720
 H        -0.883334         0.273382         0.900932
 H        -0.202379         1.351320        -0.409162
 H        -0.383494        -0.381494        -0.798847
 H         3.889589         1.938463        -0.388996
 H         4.196954        -0.766558         0.035472
