19
Iteration:   623
 C         4.506907        -0.003508         2.330268
 C         3.360411         0.343483         1.495038
 C         1.920010        -0.328954         1.645244
 C         1.273441         0.384424         0.374268
 C        -0.133297        -0.042155        -0.091616
 O         1.555034         1.761293         0.786181
 C         3.025859         1.677168         0.931185
 C         3.358534         0.536073        -0.019989
 O         2.242430         0.044579        -0.619357
 H         4.130416        -0.075210         3.479714
 H         4.790761        -1.008779         2.243911
 H         5.348479         0.704106         2.307438
 H         1.938134        -1.448647         1.575514
 H         1.606307        -0.012074         2.656944
 H        -0.281399        -1.046465         0.276677
 H        -1.081037         0.385633         0.186022
 H         0.014218        -0.134651        -1.167409
 H         3.615239         2.602767         1.081413
 H         4.325768         0.362249        -0.702093
