19
Iteration:  1096
 C         4.493297         0.137442         2.497703
 C         3.267900         0.467687         1.572546
 C         1.963961        -0.125986         1.768039
 C         1.260688         0.296367         0.452327
 C        -0.147417         0.176984        -0.001061
 O         1.627948         1.670909         0.403724
 C         2.977460         1.644476         0.678344
 C         3.444727         0.304724         0.032549
 O         2.231392        -0.284536        -0.516857
 H         4.319101         0.769879         3.407041
 H         4.590981        -0.885412         2.728373
 H         5.398757         0.517136         2.158884
 H         1.954231        -1.257395         1.806765
 H         1.459648         0.290504         2.668395
 H        -0.239665        -0.736036        -0.608136
 H        -0.791582         0.100199         0.887149
 H        -0.362681         1.102125        -0.607465
 H         3.396693         2.664904         0.612856
 H         4.309932         0.428039        -0.676261
