19
Iteration:   447charge 0 multiplicity 1
 C         4.549452        -0.011927         2.256409
 C         3.241093         0.241930         1.545660
 C         1.885991        -0.494067         1.478233
 C         1.328453         0.342971         0.337524
 C        -0.103510         0.067330         0.066174
 O         1.460938         1.649967         0.831853
 C         2.944211         1.645757         0.973752
 C         3.435735         0.740186         0.032549
 O         2.364683         0.149806        -0.661516
 H         4.508419         0.060215         3.376063
 H         5.004944        -0.839043         1.872506
 H         5.363751         0.708587         1.993779
 H         1.790100        -1.638299         1.150389
 H         1.214472        -0.241092         2.307218
 H        -0.155785        -1.001581        -0.269096
 H        -0.725743         0.098825         0.967558
 H        -0.507558         0.606221        -0.796490
 H         3.441177         2.471439         1.530854
 H         4.388902         0.609757        -0.559080
