19
Iteration:  1694
 C         4.354134         0.542489         2.505810
 C         3.294034         0.493311         1.540066
 C         1.775924         0.179847         1.852481
 C         1.314168         0.310642         0.461951
 C        -0.200355         0.266096         0.048937
 O         1.836296         1.647759         0.150551
 C         3.144164         1.501877         0.477513
 C         3.415106        -0.092253         0.153148
 O         2.200833        -0.555774        -0.343036
 H         4.003418         1.109171         3.351415
 H         4.545241        -0.426665         3.048693
 H         5.325360         1.137457         2.228604
 H         1.667102        -0.894006         2.067401
 H         1.286077         0.852173         2.573098
 H        -0.912816         0.816789         0.731019
 H        -0.256566         0.433346        -1.072392
 H        -0.566342        -0.736039         0.223392
 H         3.742340         2.319244         0.240910
 H         4.327077        -0.523183        -0.225154
