19
Iteration:  2949
 C         4.310751         0.812290         2.547713
 C         3.214394         0.662441         1.576052
 C         1.632300         0.427338         1.869542
 C         1.212390         0.297786         0.415914
 C        -0.173146         0.392848         0.098567
 O         2.007951         1.471170        -0.224015
 C         3.326484         1.299437         0.159215
 C         3.464615        -0.246381         0.377222
 O         2.107948        -0.828095         0.038474
 H         3.840818         1.479592         3.385654
 H         4.685919        -0.058472         3.165855
 H         5.254510         1.331519         2.232532
 H         1.738203        -0.459113         2.485672
 H         1.213817         1.316863         2.323279
 H        -0.880097        -0.136781         0.751404
 H        -0.490250         1.452477        -0.026339
 H        -0.264240        -0.001370        -0.917462
 H         3.932527         1.934255        -0.387281
 H         4.182795        -0.932727        -0.008001
