19
Iteration:  3993
 C         4.351054         0.626407         2.541410
 C         3.167516         0.622141         1.631989
 C         1.695966         0.563183         1.850626
 C         1.287246         0.476627         0.351440
 C        -0.196678         0.206530         0.176610
 O         1.920892         1.408287        -0.387136
 C         3.221582         1.387730         0.291450
 C         3.419762        -0.152610         0.420310
 O         2.214412        -0.779532         0.000550
 H         4.120476         1.385442         3.346898
 H         4.408762        -0.430235         2.933570
 H         5.369269         0.755820         2.123077
 H         1.253275        -0.272878         2.486921
 H         1.396365         1.598766         2.148006
 H        -0.426258         0.055347        -0.917104
 H        -0.402786        -0.622665         0.790478
 H        -0.579345         1.194808         0.375085
 H         3.983049         2.134363         0.281607
 H         4.275782        -0.649146         0.011117
