19
Iteration:  4056
 C         4.317663         0.895212         2.639138
 C         3.331229         0.455400         1.550171
 C         1.750133         0.453070         1.969982
 C         1.225080         0.388793         0.489661
 C        -0.201719         0.204372        -0.019038
 O         1.993737         1.560269        -0.143007
 C         3.288699         1.215696         0.163307
 C         3.365635        -0.214611         0.199332
 O         2.074253        -0.725941        -0.006165
 H         3.899648         1.842683         2.964676
 H         4.400849         0.197898         3.487936
 H         5.347367         1.163381         2.388970
 H         1.412968        -0.491219         2.485054
 H         1.518762         1.322351         2.607997
 H        -0.174251        -0.160171        -1.106735
 H        -0.827573        -0.409670         0.538220
 H        -0.709825         1.187593        -0.031025
 H         3.906176         2.069320        -0.101392
 H         4.140648        -0.878639        -0.189982
