19
Iteration:  2335charge 0 multiplicity 1
 C         4.369660         0.834427         2.625287
 C         3.221635         0.683659         1.615338
 C         1.704604         0.407307         1.884120
 C         1.273207         0.264034         0.435186
 C        -0.094177         0.360555         0.065910
 O         1.935301         1.517880        -0.273533
 C         3.255752         1.223823         0.181331
 C         3.399617        -0.201249         0.383157
 O         2.055942        -0.807766        -0.021694
 H         4.451963         1.888095         3.068547
 H         4.281744         0.103436         3.392176
 H         5.327427         0.648704         2.068104
 H         1.463370        -0.491576         2.411484
 H         1.289161         1.232070         2.457613
 H        -0.726855         0.354944         0.975360
 H        -0.123622         1.383172        -0.217626
 H        -0.632970        -0.327745        -0.613433
 H         4.028643         1.748314        -0.272134
 H         4.135668        -0.805023        -0.264678
