19
Iteration:  4830
 C         4.322370         0.803057         2.557047
 C         3.242658         0.524507         1.531057
 C         1.742070         0.495621         1.895774
 C         1.292275         0.447937         0.453080
 C        -0.150396         0.109112         0.065674
 O         1.922039         1.591158        -0.095792
 C         3.318949         1.272390         0.241929
 C         3.354283        -0.311086         0.293938
 O         2.100306        -0.652238        -0.091055
 H         4.219463         1.887018         2.750187
 H         4.201428         0.265160         3.515111
 H         5.319170         0.625118         2.142952
 H         1.257460        -0.433485         2.356619
 H         1.323120         1.430146         2.418804
 H        -0.125549        -0.459835        -0.899852
 H        -0.589377        -0.474080         0.821660
 H        -0.667802         1.070202         0.188730
 H         3.940766         1.930099        -0.278998
 H         4.218547        -0.985039         0.079043
