19
Iteration:  1465charge 0 multiplicity 1
 C         4.447431         0.333279         2.555865
 C         3.294014         0.394092         1.660247
 C         1.787281         0.142336         1.796762
 C         1.265144         0.458258         0.405567
 C        -0.141226         0.014938         0.089220
 O         1.779941         1.753769         0.149130
 C         3.081455         1.481195         0.541385
 C         3.401193         0.101008         0.126222
 O         2.180102        -0.358332        -0.469624
 H         4.199186         0.889390         3.482955
 H         4.608352        -0.771254         2.767658
 H         5.435845         0.807584         2.227907
 H         1.604876        -0.885980         2.156244
 H         1.363358         0.775403         2.575225
 H        -0.667457        -0.020492         1.055693
 H        -0.776969         0.784274        -0.534898
 H         0.131120        -1.007515        -0.345202
 H         3.704351         2.300442         0.435185
 H         4.327641        -0.300753        -0.234844
