19
Iteration:  4908charge 0 multiplicity 1
 C         4.334534         0.827476         2.574058
 C         3.244122         0.601903         1.600608
 C         1.763457         0.568742         1.876992
 C         1.316333         0.353527         0.341850
 C        -0.154743         0.150889         0.186805
 O         1.989471         1.534998        -0.174966
 C         3.288174         1.239431         0.254330
 C         3.303621        -0.265430         0.317257
 O         2.044003        -0.696578        -0.141640
 H         4.101755         1.766013         3.114240
 H         4.349537        -0.009310         3.294871
 H         5.318242         0.986587         2.122294
 H         1.443490        -0.352344         2.528369
 H         1.090731         1.377186         2.349133
 H        -0.279250         0.092880        -0.934397
 H        -0.298459        -0.867372         0.478074
 H        -0.714244         0.910914         0.745649
 H         4.118335         1.950880        -0.034238
 H         4.108756        -1.013520         0.138680
