19
Iteration:  1430charge 0 multiplicity 1
 C         4.382766         0.292219         2.543574
 C         3.281092         0.490512         1.491544
 C         1.851661         0.088415         1.807465
 C         1.291267         0.324593         0.468012
 C        -0.083142         0.110524         0.004408
 O         1.742779         1.728345         0.287675
 C         3.056254         1.516567         0.490376
 C         3.417203         0.178089         0.057180
 O         2.200486        -0.388325        -0.333905
 H         4.230025         0.929924         3.347599
 H         4.221941        -0.737752         2.985169
 H         5.428627         0.343332         2.084064
 H         1.765868        -0.969030         2.101681
 H         1.347428         0.785056         2.480840
 H        -0.767717         0.826808         0.501068
 H        -0.228657         0.002336        -1.060799
 H        -0.576229        -0.843003         0.428431
 H         3.650776         2.447469         0.360293
 H         4.388049        -0.237781        -0.269640
