19
Iteration:  4626
 C         4.332253         0.645113         2.635973
 C         3.261750         0.537810         1.543400
 C         1.798693         0.524215         1.896764
 C         1.323770         0.370284         0.488836
 C        -0.148209         0.156754         0.121704
 O         1.814671         1.558487        -0.234314
 C         3.205327         1.412481         0.169303
 C         3.418286        -0.122102         0.236604
 O         2.143877        -0.733878        -0.008345
 H         4.285592         1.487236         3.382719
 H         4.139341        -0.255879         3.318438
 H         5.357965         0.555126         2.195305
 H         1.474395        -0.366272         2.453716
 H         1.423146         1.445812         2.377093
 H        -0.219323        -0.276206        -0.977951
 H        -0.734469        -0.543321         0.708144
 H        -0.608286         1.176820        -0.006343
 H         4.023377         2.129602        -0.137444
 H         4.138104        -0.863965         0.022038
