19
Iteration:  3435
 C         4.351213         0.893702         2.531514
 C         3.200305         0.489216         1.654051
 C         1.667717         0.494231         1.805278
 C         1.311316         0.415565         0.349242
 C        -0.173945         0.278278         0.113945
 O         1.982927         1.619893        -0.232999
 C         3.300821         1.261798         0.322196
 C         3.378358        -0.403016         0.371151
 O         2.111303        -0.823592        -0.055859
 H         4.029636         1.868096         2.931206
 H         4.672178         0.433724         3.507286
 H         5.272518         0.890697         1.931856
 H         1.099000        -0.199358         2.392533
 H         1.331959         1.475649         2.153975
 H        -0.502871        -0.402819        -0.709273
 H        -0.512018        -0.363464         1.058956
 H        -0.785048         1.166968         0.095427
 H         4.024108         2.073319        -0.011927
 H         4.356551        -0.875088         0.066094
