19
Iteration:  2199
 C         4.305284         0.707847         2.601935
 C         3.257743         0.565545         1.542804
 C         1.731706         0.584022         1.915245
 C         1.278918         0.439481         0.461988
 C        -0.199906         0.189155         0.099321
 O         1.941332         1.622118        -0.149407
 C         3.301350         1.248350         0.080872
 C         3.407289        -0.265121         0.354500
 O         2.118346        -0.751247        -0.059163
 H         3.907238         1.326426         3.371865
 H         4.497664        -0.357016         3.007022
 H         5.216545         1.119884         2.206591
 H         1.496824        -0.394627         2.466478
 H         1.225121         1.340337         2.592820
 H        -0.616800         1.153384        -0.339432
 H        -0.182126        -0.506704        -0.907662
 H        -0.860182        -0.200892         0.918342
 H         4.024586         1.890936        -0.290207
 H         4.270329        -0.958430         0.196771
