19
Iteration:  4919charge 0 multiplicity 1
 C         4.366863         0.814302         2.630960
 C         3.225741         0.600469         1.631932
 C         1.742711         0.590855         1.817144
 C         1.292078         0.491043         0.404530
 C        -0.147101         0.042721         0.153918
 O         1.978875         1.534330        -0.188194
 C         3.344972         1.209771         0.247832
 C         3.355534        -0.321963         0.300303
 O         1.983727        -0.660706        -0.129189
 H         4.082376         1.629317         3.325788
 H         4.582622        -0.057419         3.284084
 H         5.316784         1.056955         2.139101
 H         1.308611        -0.298473         2.428230
 H         1.517738         1.698823         2.106024
 H        -0.536439         0.093884        -0.898996
 H        -0.166358        -0.942559         0.579278
 H        -0.959949         0.564435         0.678249
 H         4.027181         2.044542        -0.127206
 H         4.174843        -0.918478        -0.113248
