19
Iteration:  3821
 C         4.200997         0.638320         2.663061
 C         3.292616         0.687983         1.488725
 C         1.865298         0.643402         1.868933
 C         1.318851         0.322586         0.495703
 C        -0.005292         0.120395        -0.012595
 O         1.875502         1.616214        -0.120556
 C         3.249376         1.319269         0.072329
 C         3.290421        -0.163747         0.203531
 O         2.062701        -0.805005         0.125533
 H         3.739857         1.175974         3.528392
 H         4.195457        -0.390364         3.060005
 H         5.208607         1.031578         2.688594
 H         1.660476        -0.179680         2.596091
 H         1.585350         1.544448         2.388424
 H         0.181461        -0.432064        -1.065088
 H        -0.464624        -0.597807         0.784317
 H        -0.742324         0.962630        -0.169435
 H         3.878698         1.935678        -0.551784
 H         4.116762        -0.868918        -0.126115
