19
Iteration:  2995
 C         4.298018         0.783830         2.582582
 C         3.251762         0.598922         1.553940
 C         1.711100         0.583269         1.940738
 C         1.347999         0.370449         0.537847
 C        -0.154233         0.157368         0.030152
 O         1.983814         1.515663        -0.182477
 C         3.320236         1.301186         0.155380
 C         3.343338        -0.303839         0.278869
 O         2.023860        -0.714587        -0.054596
 H         4.174739         1.692127         3.184490
 H         4.182012        -0.004056         3.418340
 H         5.374403         0.690326         2.403477
 H         1.353895        -0.268770         2.479911
 H         1.432075         1.541523         2.303225
 H        -0.851895        -0.005458         0.825629
 H        -0.500980         1.052747        -0.511221
 H        -0.290123        -0.623249        -0.652355
 H         4.208836         2.000751        -0.126424
 H         4.294693        -0.815805         0.077777
