19
Iteration:  1818
 C         4.307842         0.544930         2.602200
 C         3.273670         0.549500         1.624575
 C         1.804204         0.159453         1.830523
 C         1.316043         0.324457         0.402754
 C        -0.153426         0.324343         0.088471
 O         1.788903         1.604330         0.057531
 C         3.187011         1.476217         0.242760
 C         3.410419        -0.005314         0.146212
 O         2.195429        -0.657803        -0.157771
 H         4.183226         1.237427         3.495801
 H         4.682042        -0.405911         2.960837
 H         5.177567         0.979398         2.209405
 H         1.812421        -0.850517         2.204616
 H         1.244583         0.754833         2.540257
 H        -0.467227        -0.529141        -0.557953
 H        -0.862878         0.355893         0.967266
 H        -0.391566         1.208568        -0.606502
 H         3.857893         2.279558        -0.087865
 H         4.183912        -0.677426        -0.202795
