19
Iteration:  2621charge 0 multiplicity 1
 C         4.256062         0.855661         2.559988
 C         3.229982         0.564113         1.545525
 C         1.720903         0.490873         1.918010
 C         1.325515         0.358362         0.413210
 C        -0.187654         0.355687         0.040972
 O         1.986710         1.522280        -0.179175
 C         3.264357         1.242495         0.188255
 C         3.376723        -0.290924         0.331154
 O         2.115222        -0.797214         0.020949
 H         4.137064         1.933475         2.916491
 H         4.349808         0.158081         3.393691
 H         5.223399         0.760926         1.982321
 H         1.654736        -0.418619         2.521516
 H         1.243869         1.332061         2.427869
 H        -0.711585         0.271777         1.027660
 H        -0.455992         1.317093        -0.440803
 H        -0.334940        -0.532573        -0.620188
 H         4.164822         1.703481        -0.124319
 H         4.187163        -1.072877         0.048845
