19
Iteration:  1856
 C         4.364617         0.626923         2.675840
 C         3.243203         0.382097         1.554957
 C         1.815643         0.273317         1.944025
 C         1.272553         0.364040         0.409067
 C        -0.214451         0.240166         0.088775
 O         1.865749         1.614751        -0.004214
 C         3.218206         1.344617         0.315353
 C         3.385797        -0.083240         0.141476
 O         2.165404        -0.528302        -0.268798
 H         3.922719         1.176587         3.530515
 H         4.933606        -0.290268         2.998873
 H         4.978688         1.379008         2.046043
 H         1.589521        -0.708650         2.456022
 H         1.431843         1.178857         2.475708
 H        -0.181168        -0.145936        -0.933334
 H        -0.626464        -0.523465         0.789846
 H        -0.753445         1.151943         0.206848
 H         3.810349         2.240739        -0.028158
 H         4.288399        -0.638144        -0.164672
