19
Iteration:   423
 C         4.496501         0.045426         2.323615
 C         3.344368         0.177925         1.452769
 C         2.105514        -0.558012         1.527472
 C         1.294414         0.328184         0.399103
 C        -0.125093         0.053209        -0.070794
 O         1.525964         1.712645         0.857690
 C         2.905630         1.618203         1.128327
 C         3.397170         0.563041         0.006221
 O         2.203064         0.258526        -0.735412
 H         4.105934         0.295255         3.288262
 H         5.100440        -0.871245         2.219073
 H         5.322445         0.818548         2.137886
 H         2.032305        -1.660753         1.267770
 H         1.577024        -0.245190         2.484681
 H        -0.569061        -0.902777         0.245215
 H        -0.823463         0.795831         0.370442
 H        -0.131033         0.111520        -1.184307
 H         3.358903         2.590985         1.286434
 H         4.248998         0.807149        -0.689404
