19
Iteration:  2018
 C         4.361309         0.682784         2.560442
 C         3.276141         0.583414         1.557153
 C         1.755019         0.344067         1.968425
 C         1.258786         0.274348         0.454562
 C        -0.184314         0.363668         0.069685
 O         1.866679         1.549464        -0.133207
 C         3.216581         1.345220         0.319600
 C         3.382097        -0.179395         0.252098
 O         2.187040        -0.703144        -0.174579
 H         3.921235         1.323584         3.401646
 H         4.550156        -0.182497         3.107263
 H         5.309510         1.103964         2.256808
 H         1.707565        -0.665281         2.384481
 H         1.278449         1.122002         2.546337
 H        -0.924790         0.078931         0.866563
 H        -0.462615         1.374165        -0.217890
 H        -0.312171        -0.142216        -0.881567
 H         3.910762         2.097800        -0.042907
 H         4.295473        -0.650006        -0.116300
