19
Iteration:  2869
 C         4.267950         0.685582         2.598101
 C         3.255440         0.693298         1.602385
 C         1.776592         0.610652         1.858550
 C         1.267846         0.483295         0.465366
 C        -0.094347         0.278564         0.084067
 O         1.861794         1.415721        -0.297143
 C         3.246446         1.246343         0.134195
 C         3.355185        -0.182525         0.379822
 O         2.152048        -0.830799         0.031685
 H         4.591465         1.662682         3.035656
 H         4.033424         0.084930         3.469608
 H         5.264802         0.324319         2.257549
 H         1.449771        -0.240453         2.502868
 H         1.339616         1.517558         2.383317
 H        -0.106963        -0.798184        -0.237398
 H        -0.810073         0.558203         0.860211
 H        -0.245558         0.902331        -0.862319
 H         4.123820         1.752525        -0.425775
 H         4.153125        -0.933788         0.357561
