19
Iteration:  2179charge 0 multiplicity 1
 C         4.296540         0.847206         2.616251
 C         3.255286         0.520651         1.597784
 C         1.783045         0.410543         1.931254
 C         1.334024         0.427714         0.467030
 C        -0.111419         0.186352         0.066648
 O         1.968118         1.593165        -0.168012
 C         3.312209         1.200736         0.215762
 C         3.297231        -0.284978         0.246046
 O         2.000500        -0.637220        -0.093076
 H         4.056146         1.740793         3.197698
 H         4.544699         0.004224         3.310343
 H         5.209680         1.076321         2.078158
 H         1.352038        -0.412976         2.497155
 H         1.459720         1.344424         2.382105
 H        -0.457869         0.934472        -0.648667
 H        -0.279803        -0.695966        -0.566783
 H        -0.679780         0.147630         0.969783
 H         4.125033         1.824851        -0.067922
 H         4.087476        -0.981740        -0.097907
