19
Iteration:  3684
 C         4.298718         0.684884         2.571000
 C         3.207561         0.625868         1.591404
 C         1.762425         0.545115         1.848237
 C         1.271027         0.421719         0.433152
 C        -0.175034         0.204479         0.091526
 O         1.941210         1.491136        -0.339823
 C         3.237808         1.301939         0.228628
 C         3.396118        -0.230876         0.376169
 O         2.150424        -0.717634         0.031904
 H         4.034011         1.525354         3.218652
 H         4.125930        -0.238883         3.168159
 H         5.357736         0.709546         2.165936
 H         1.568038        -0.204846         2.618503
 H         1.424456         1.546898         2.234526
 H        -0.296230         0.206062        -0.935860
 H        -0.400996        -0.781190         0.585702
 H        -0.749829         0.929271         0.625724
 H         4.001255         1.981624        -0.142739
 H         4.405683        -0.714115         0.266603
