19
Iteration:  4087
 C         4.343295         0.870417         2.532736
 C         3.178911         0.659720         1.691566
 C         1.686037         0.463194         1.873986
 C         1.334504         0.352409         0.355624
 C        -0.106723         0.312443         0.173364
 O         1.924041         1.471364        -0.204960
 C         3.201397         1.225572         0.274886
 C         3.339690        -0.303095         0.408393
 O         2.183463        -0.776089        -0.218304
 H         4.437218         1.888493         2.820602
 H         4.399497         0.264595         3.427609
 H         5.256700         0.645439         1.997281
 H         1.588522        -0.538494         2.250345
 H         1.215543         1.224151         2.448539
 H        -0.474823         0.366629        -0.882620
 H        -0.565192        -0.502037         0.640961
 H        -0.480261         1.307708         0.519962
 H         3.804276         2.084016        -0.001338
 H         4.293013        -0.867119         0.383822
