19
Iteration:   792
 C         4.550105        -0.064629         2.390904
 C         3.313366         0.347517         1.541919
 C         1.936444        -0.233915         1.715608
 C         1.267287         0.354035         0.382317
 C        -0.096337         0.053776        -0.046904
 O         1.484032         1.755237         0.612166
 C         2.948323         1.759431         0.794507
 C         3.399723         0.541864        -0.014406
 O         2.321230        -0.164576        -0.520965
 H         4.355455         0.016840         3.476556
 H         4.811795        -1.177516         2.161706
 H         5.487279         0.572339         2.234013
 H         2.036928        -1.350385         1.634081
 H         1.334043         0.059905         2.588754
 H        -0.877424         0.340075         0.725959
 H        -0.277407         0.760282        -0.886135
 H        -0.334628        -1.013538        -0.269212
 H         3.196907         2.839673         0.746029
 H         4.466219         0.414844        -0.459419
