19
Iteration:  1619charge 0 multiplicity 1
 C         4.334094         0.325435         2.590883
 C         3.289669         0.533471         1.550802
 C         1.806539         0.112717         1.917916
 C         1.347279         0.265997         0.492020
 C        -0.117334         0.212190         0.074566
 O         1.701509         1.706699         0.070562
 C         3.065091         1.565227         0.316037
 C         3.434044         0.059679         0.153274
 O         2.245712        -0.505080        -0.296623
 H         4.164038         0.966612         3.482026
 H         4.270031        -0.631521         3.142962
 H         5.359562         0.558967         2.259523
 H         1.833070        -0.857715         2.408613
 H         1.431907         0.916484         2.569070
 H        -0.078774         0.942745        -0.815441
 H        -0.388713        -0.841581        -0.295710
 H        -0.798279         0.617717         0.811555
 H         3.708525         2.351897        -0.113333
 H         4.345408        -0.158755        -0.411776
