19
Iteration:     4charge 0 multiplicity 1
 C         4.627426        -0.167863         2.140124
 C         3.355327         0.197169         1.385988
 C         2.121432        -0.689261         1.238932
 C         1.326846         0.294088         0.382030
 C        -0.068088        -0.022639        -0.099890
 O         1.376518         1.504269         1.139534
 C         2.778175         1.614131         1.319504
 C         3.347816         0.990349         0.050507
 O         2.241439         0.580505        -0.703395
 H         4.478381        -0.333722         3.201955
 H         5.134157        -1.100641         1.631891
 H         5.403359         0.572633         2.019373
 H         2.339957        -1.651056         0.675853
 H         1.654955        -1.046457         2.153590
 H        -0.634747        -0.278024         0.764755
 H        -0.475206         0.876873        -0.556261
 H        -0.013750        -0.869197        -0.723432
 H         3.089899         2.411441         1.965559
 H         4.169319         1.497209        -0.524400
