19
Iteration:  1153charge 0 multiplicity 1
 C         4.528253         0.215184         2.537030
 C         3.239778         0.389702         1.616792
 C         1.817275        -0.144762         1.782513
 C         1.300918         0.420601         0.415731
 C        -0.139937        -0.022592         0.041903
 O         1.684819         1.832146         0.342218
 C         3.104766         1.617470         0.619653
 C         3.394420         0.236145         0.038980
 O         2.188350        -0.207192        -0.551294
 H         4.203066         0.359978         3.582547
 H         4.809548        -0.803994         2.643630
 H         5.425763         0.724080         2.285113
 H         1.691147        -1.235158         2.011779
 H         1.396902         0.543188         2.552481
 H        -0.601756         0.374453        -0.862624
 H        -0.119483        -1.131944        -0.075979
 H        -0.699980         0.243168         0.943478
 H         3.669568         2.524469         0.660107
 H         4.221582        -0.127982        -0.461461
