19
Iteration:  4544
 C         4.393956         0.781740         2.684198
 C         3.320223         0.671771         1.522596
 C         1.858373         0.433820         1.972183
 C         1.246758         0.336716         0.504956
 C        -0.191858         0.373729        -0.008600
 O         1.829134         1.473569        -0.179526
 C         3.153778         1.338912         0.140764
 C         3.391740        -0.255786         0.299173
 O         2.125035        -0.835905        -0.069387
 H         3.811163         1.384853         3.357428
 H         4.674616        -0.167156         3.119572
 H         5.245496         1.440663         2.550054
 H         1.986313        -0.613576         2.451662
 H         1.267041         1.266383         2.486569
 H         0.021433         0.731188        -0.993227
 H        -0.763557        -0.637151        -0.143814
 H        -0.797434         1.043503         0.693529
 H         3.907781         2.036941        -0.299251
 H         4.221707        -0.892277        -0.057868
