19
Iteration:  3879
 C         4.373507         0.815526         2.536761
 C         3.140661         0.602718         1.656877
 C         1.623759         0.466270         1.848324
 C         1.358455         0.319630         0.373980
 C        -0.124598         0.290248         0.151380
 O         1.973418         1.525089        -0.292789
 C         3.184280         1.295036         0.323365
 C         3.421910        -0.251825         0.381602
 O         2.148885        -0.771555        -0.077755
 H         4.208571         1.764276         3.006197
 H         4.464774         0.026682         3.268958
 H         5.272813         0.763967         1.905067
 H         1.352418        -0.483091         2.267475
 H         1.276663         1.363846         2.385586
 H        -0.407320         0.112577        -0.832521
 H        -0.552973        -0.578254         0.718554
 H        -0.521018         1.217584         0.544295
 H         3.908343         2.072021        -0.025690
 H         4.227001        -0.797932        -0.013637
