19
Iteration:  2134
 C         4.300685         0.768506         2.534099
 C         3.182006         0.585586         1.613488
 C         1.726853         0.363152         1.908815
 C         1.317747         0.282373         0.448482
 C        -0.089251         0.421784         0.098136
 O         1.849485         1.485912        -0.139370
 C         3.230553         1.326365         0.199361
 C         3.430985        -0.171627         0.280487
 O         2.152016        -0.716910        -0.085966
 H         4.558684         1.705451         2.972743
 H         4.049656         0.120215         3.462680
 H         5.238813         0.353058         2.221819
 H         1.719722        -0.635420         2.395606
 H         1.252430         1.149948         2.538424
 H        -0.066833         0.455724        -0.996855
 H        -0.740945        -0.519022         0.136421
 H        -0.427428         1.177982         0.775383
 H         3.874095         1.829216        -0.436707
 H         4.239593        -0.880208         0.106987
