19
Iteration:  3828charge 0 multiplicity 1
 C         4.202150         0.656871         2.690166
 C         3.325564         0.684534         1.436945
 C         1.835740         0.615494         1.846271
 C         1.348867         0.337574         0.513761
 C        -0.071763         0.063579        -0.016593
 O         1.853343         1.663239        -0.100663
 C         3.297907         1.403812         0.071218
 C         3.311311        -0.245937         0.304836
 O         2.059571        -0.799733         0.109687
 H         3.671915         1.146050         3.519082
 H         4.121623        -0.468405         2.777179
 H         5.251963         0.976753         2.535099
 H         1.911280        -0.164473         2.630970
 H         1.523190         1.619086         2.180332
 H         0.005319        -0.414424        -1.008812
 H        -0.558071        -0.601647         0.611491
 H        -0.667876         1.001802        -0.177037
 H         4.053530         1.775125        -0.673225
 H         4.001313        -0.895503        -0.123299
