19
Iteration:  1301charge 0 multiplicity 1
 C         4.346794         0.172138         2.495854
 C         3.284725         0.519257         1.482103
 C         1.839645        -0.038691         1.799967
 C         1.307965         0.302951         0.468459
 C        -0.128272         0.166309         0.050337
 O         1.685274         1.706969         0.310842
 C         3.055875         1.651196         0.501872
 C         3.480521         0.289905         0.102626
 O         2.243754        -0.435806        -0.372958
 H         4.251956         0.637992         3.510530
 H         4.522814        -0.947048         2.638403
 H         5.362033         0.667363         2.336220
 H         1.663316        -1.110770         1.895549
 H         1.494491         0.539336         2.636966
 H        -0.183935        -0.908161        -0.069756
 H        -0.830540         0.435973         0.833213
 H        -0.357131         0.855781        -0.811212
 H         3.575016         2.583878         0.311809
 H         4.305404         0.145462        -0.531503
