19
Iteration:  1472
 C         4.468363         0.376692         2.577376
 C         3.287581         0.394573         1.594286
 C         1.752421         0.089948         1.771543
 C         1.279811         0.423805         0.357577
 C        -0.172215         0.055034         0.105019
 O         1.753151         1.728838         0.155722
 C         3.107623         1.511774         0.546318
 C         3.494463         0.080521         0.144545
 O         2.152495        -0.356994        -0.390366
 H         4.228678         0.753085         3.548192
 H         4.680140        -0.673541         2.772949
 H         5.500332         0.739088         2.370121
 H         1.334018        -0.872471         2.113802
 H         1.354967         0.923567         2.397502
 H        -0.551869        -0.204178         1.103489
 H        -0.607426         0.827595        -0.412473
 H        -0.112034        -0.805777        -0.611888
 H         3.729920         2.441161         0.490973
 H         4.250911        -0.269223        -0.612787
