19
Iteration:  2123
 C         4.315783         0.664732         2.588558
 C         3.236485         0.697795         1.534697
 C         1.776871         0.394757         1.911247
 C         1.329322         0.302774         0.476918
 C        -0.091744         0.327449         0.077358
 O         1.916263         1.482101        -0.172514
 C         3.203612         1.376726         0.242292
 C         3.346200        -0.177229         0.325970
 O         2.098992        -0.752121        -0.110452
 H         4.379936         1.712219         2.777232
 H         4.062969         0.082549         3.543170
 H         5.218990         0.333871         2.115863
 H         1.672473        -0.645954         2.284668
 H         1.151697         1.041268         2.571306
 H        -0.243388         0.448711        -0.995913
 H        -0.598828        -0.471008         0.707626
 H        -0.531890         1.294316         0.292699
 H         3.886583         2.081295        -0.145045
 H         4.278954        -0.630372         0.055852
