19
Iteration:  2248
 C         4.296551         0.605137         2.602190
 C         3.201056         0.659708         1.602925
 C         1.764814         0.552156         1.879209
 C         1.273753         0.400421         0.431390
 C        -0.196300         0.300452         0.115373
 O         1.851060         1.471128        -0.265699
 C         3.279043         1.266634         0.102245
 C         3.402414        -0.185737         0.372125
 O         2.226274        -0.737527         0.006188
 H         4.190708         1.458159         3.335029
 H         4.296851        -0.330067         3.090623
 H         5.258695         0.739441         2.045517
 H         1.513647        -0.116407         2.656369
 H         1.439211         1.481641         2.278529
 H        -0.822215         0.961552         0.665479
 H        -0.363115         0.600471        -0.834928
 H        -0.381052        -0.750533         0.303507
 H         4.052603         1.862347        -0.421737
 H         4.241140        -0.857406         0.331407
