19
Iteration:  2226charge 0 multiplicity 1
 C         4.394667         0.593865         2.681756
 C         3.281296         0.649085         1.621214
 C         1.734048         0.642502         1.896763
 C         1.320130         0.316046         0.400721
 C        -0.137482         0.277057         0.104505
 O         1.921130         1.429085        -0.342109
 C         3.155402         1.347078         0.199505
 C         3.408331        -0.145303         0.290221
 O         2.060333        -0.779366         0.018664
 H         4.120645         1.231298         3.580265
 H         4.448517        -0.419110         2.948695
 H         5.400404         0.887348         2.276546
 H         1.522170        -0.160709         2.566337
 H         1.204974         1.460461         2.289095
 H        -0.553542         1.241242         0.197435
 H        -0.295659         0.181616        -0.881938
 H        -0.566442        -0.518826         0.679751
 H         3.887998         2.183870        -0.032669
 H         4.169785        -0.678355        -0.222126
