19
Iteration:  1608charge 0 multiplicity 1
 C         4.389251         0.343377         2.639916
 C         3.312187         0.516999         1.568810
 C         1.873124         0.122060         1.890063
 C         1.254077         0.358342         0.445152
 C        -0.158109         0.199673         0.011166
 O         1.669216         1.640236         0.073818
 C         3.150222         1.591928         0.351719
 C         3.465000         0.133461         0.155820
 O         2.201504        -0.529786        -0.285499
 H         4.305292         1.126763         3.394879
 H         4.195776        -0.714666         2.870993
 H         5.408964         0.226202         2.219184
 H         1.689562        -0.905879         2.260793
 H         1.444977         0.820411         2.637678
 H        -0.406497         0.528005        -1.062762
 H        -0.463463        -0.910456         0.141056
 H        -0.776104         0.692148         0.762551
 H         3.760734         2.520776         0.178084
 H         4.396013        -0.348729        -0.201739
