19
Iteration:  3444
 C         4.361106         0.893561         2.546379
 C         3.119826         0.546031         1.605977
 C         1.647434         0.549150         1.813236
 C         1.345029         0.433688         0.303058
 C        -0.134976         0.225729         0.203825
 O         1.978982         1.554833        -0.217786
 C         3.270708         1.239506         0.323519
 C         3.354336        -0.367223         0.407917
 O         2.127446        -0.794115        -0.107257
 H         4.246285         1.854832         3.049910
 H         4.591550         0.067658         3.275721
 H         5.232750         1.053040         1.889058
 H         1.319099        -0.302877         2.385589
 H         1.329327         1.519663         2.143734
 H        -0.173408        -0.221895        -0.847616
 H        -0.719889        -0.349843         1.041449
 H        -0.599150         1.212936         0.083473
 H         4.207350         1.783078         0.153903
 H         4.220278        -1.064447         0.141585
