19
Iteration:  3847charge 0 multiplicity 1
 C         4.314928         0.647730         2.654307
 C         3.286153         0.684149         1.546298
 C         1.813179         0.641814         1.883498
 C         1.265416         0.336098         0.455327
 C        -0.219643         0.086274         0.018786
 O         1.919587         1.585494        -0.219610
 C         3.221679         1.301036         0.155370
 C         3.417984        -0.263278         0.362218
 O         2.117015        -0.705349        -0.023415
 H         3.964733         1.319104         3.439551
 H         4.335888        -0.347734         3.119364
 H         5.310921         1.075516         2.458265
 H         1.528629        -0.201491         2.517660
 H         1.541704         1.565100         2.448792
 H        -0.188911        -0.268843        -0.936397
 H        -0.658315        -0.605185         0.738449
 H        -0.830336         0.950347        -0.012911
 H         3.876487         2.057134        -0.318252
 H         4.258376        -0.855340         0.086947
