19
Iteration:  4009charge 0 multiplicity 1
 C         4.272028         0.644796         2.599631
 C         3.196109         0.629276         1.591858
 C         1.694633         0.582203         1.890545
 C         1.286222         0.328889         0.429676
 C        -0.207037         0.230133         0.059596
 O         1.919970         1.518574        -0.246665
 C         3.290590         1.306524         0.181016
 C         3.472686        -0.180213         0.262533
 O         2.200626        -0.741306         0.063846
 H         4.244169         1.315160         3.444074
 H         4.526055        -0.322884         3.018805
 H         5.159436         1.045362         2.064007
 H         1.423448        -0.257751         2.488167
 H         1.310609         1.474678         2.366380
 H        -0.441881        -0.165894        -0.912749
 H        -0.794015        -0.443539         0.798921
 H        -0.860344         1.134885         0.183641
 H         3.955683         2.053572        -0.311161
 H         4.408444        -0.796356         0.171988
