19
Iteration:  4994
 C         4.350539         0.803447         2.582392
 C         3.230734         0.590416         1.594688
 C         1.744226         0.443462         1.894011
 C         1.273598         0.247400         0.381874
 C        -0.165305         0.344927         0.073556
 O         1.875997         1.456082        -0.289458
 C         3.227476         1.353709         0.195806
 C         3.404080        -0.206006         0.366487
 O         2.150721        -0.759852         0.056949
 H         4.446005         1.683025         3.298397
 H         4.476600        -0.081679         3.298508
 H         5.284143         0.769612         1.950701
 H         1.592626        -0.465486         2.461730
 H         1.354314         1.363030         2.315437
 H        -0.329671         0.211909        -1.061823
 H        -0.777292        -0.293591         0.669142
 H        -0.565779         1.332920         0.405656
 H         3.955472         2.130860        -0.248895
 H         4.268960        -0.752983         0.130651
