19
Iteration:  1979charge 0 multiplicity 1
 C         4.412438         0.751867         2.656710
 C         3.257367         0.419754         1.540982
 C         1.743140         0.340042         1.896442
 C         1.302671         0.455696         0.465968
 C        -0.164569         0.137248         0.071491
 O         1.921646         1.694336        -0.060784
 C         3.273224         1.329657         0.346546
 C         3.307295        -0.196137         0.217452
 O         2.074991        -0.646203        -0.248606
 H         4.083742         1.741745         2.890427
 H         4.227178        -0.089283         3.429917
 H         5.526205         0.804830         2.376561
 H         1.479253        -0.671190         2.270348
 H         1.283170         1.160346         2.515259
 H        -0.832846         0.370684         0.907425
 H        -0.398257         0.721417        -0.797403
 H        -0.244488        -0.952447        -0.115250
 H         4.162764         1.848834         0.140079
 H         4.107111        -0.580950        -0.449874
