19
Iteration:  2561
 C         4.351953         0.675050         2.616054
 C         3.213684         0.684193         1.534097
 C         1.694406         0.641921         1.820598
 C         1.270078         0.423360         0.436461
 C        -0.149599         0.233498         0.107794
 O         1.948534         1.505598        -0.289420
 C         3.261272         1.260186         0.137788
 C         3.390133        -0.241127         0.414245
 O         2.143834        -0.799180         0.069209
 H         4.052803         1.218887         3.530962
 H         4.398853        -0.463804         2.945290
 H         5.327138         0.983480         2.203049
 H         1.475098        -0.297384         2.377389
 H         1.272919         1.537705         2.308652
 H        -0.782463        -0.044448         0.946667
 H        -0.564603         1.182943        -0.264865
 H        -0.259139        -0.440571        -0.773091
 H         4.064638         1.886666        -0.407440
 H         4.076323        -1.015950         0.417188
