19
Iteration:  3269
 C         4.279375         0.846136         2.664476
 C         3.269788         0.682536         1.513958
 C         1.805324         0.549421         1.932352
 C         1.231190         0.246650         0.446689
 C        -0.191765         0.368278        -0.032761
 O         1.904874         1.470122        -0.139637
 C         3.323945         1.216892         0.083233
 C         3.376920        -0.262166         0.317218
 O         2.113931        -0.833830         0.027310
 H         4.028017         1.682120         3.306670
 H         4.371960        -0.074931         3.299287
 H         5.320525         1.055180         2.335295
 H         1.712627        -0.307446         2.576492
 H         1.311488         1.348127         2.435534
 H        -0.219284         0.271332        -1.142152
 H        -0.776394        -0.416314         0.396650
 H        -0.565339         1.389802         0.252121
 H         4.012944         1.954012        -0.455986
 H         4.283782        -0.891675         0.257968
