19
Iteration:  2913
 C         4.435416         0.851511         2.684457
 C         3.237566         0.519413         1.641592
 C         1.738617         0.618717         1.863794
 C         1.316868         0.475992         0.427571
 C        -0.244310         0.204879         0.036958
 O         1.953871         1.533834        -0.259788
 C         3.303764         1.210509         0.226171
 C         3.325165        -0.346599         0.309212
 O         2.054027        -0.788661        -0.052659
 H         3.993231         1.695163         3.319922
 H         4.582715        -0.001118         3.345833
 H         5.355956         1.302057         2.209269
 H         1.392430        -0.109489         2.644369
 H         1.410438         1.605133         2.334609
 H        -0.364534        -0.887535         0.323949
 H        -1.003712         0.800793         0.535515
 H        -0.314287         0.190552        -1.126980
 H         4.076814         1.873763        -0.284358
 H         4.306241        -0.837018        -0.016558
