19
Iteration:  3391charge 0 multiplicity 1
 C         4.296246         0.864835         2.695481
 C         3.313082         0.684769         1.538336
 C         1.841141         0.510949         1.952298
 C         1.313787         0.350702         0.483274
 C        -0.015005         0.347037        -0.052412
 O         1.870532         1.475033        -0.123345
 C         3.176271         1.235681         0.014582
 C         3.332230        -0.220929         0.340116
 O         2.010606        -0.879825        -0.042982
 H         4.356455         1.806766         3.195449
 H         3.929364         0.292797         3.599487
 H         5.247191         0.356838         2.492340
 H         1.907627        -0.422420         2.480811
 H         1.322208         1.251705         2.559375
 H         0.018411         0.113024        -1.131253
 H        -0.627706        -0.363454         0.627646
 H        -0.481730         1.295520         0.060330
 H         3.953445         1.834168        -0.398526
 H         4.098256        -0.995648         0.079158
