19
Iteration:   253
 C         4.467939        -0.020250         2.195944
 C         3.206724         0.222970         1.466352
 C         2.075930        -0.711059         1.448295
 C         1.312167         0.309230         0.401626
 C        -0.148831         0.058100         0.026910
 O         1.441671         1.593838         0.899800
 C         2.898375         1.629531         1.121253
 C         3.472196         0.787901         0.007189
 O         2.378445         0.382349        -0.696250
 H         4.464515        -0.032142         3.369242
 H         5.011785        -0.964019         1.851674
 H         5.092480         0.823903         1.899004
 H         2.300629        -1.622472         0.875944
 H         1.643959        -0.780220         2.369160
 H        -0.167276        -0.677574        -0.797700
 H        -0.743357        -0.325336         0.874691
 H        -0.598858         1.022326        -0.296171
 H         3.042252         2.500545         1.703829
 H         4.327285         1.137382        -0.532299
