19
Iteration:  4681charge 0 multiplicity 1
 C         4.380860         0.790739         2.554098
 C         3.221943         0.527609         1.601694
 C         1.765282         0.428567         1.932609
 C         1.324643         0.415497         0.429576
 C        -0.179059         0.168594         0.023064
 O         1.881386         1.566931        -0.175019
 C         3.223854         1.319209         0.306126
 C         3.396997        -0.222010         0.320092
 O         2.089505        -0.700063        -0.116334
 H         4.443575         1.903025         2.683409
 H         4.269361         0.283321         3.563296
 H         5.344284         0.422352         2.111812
 H         1.563069        -0.546214         2.367240
 H         1.402245         1.338128         2.446426
 H        -0.527305        -0.089431        -1.084972
 H        -0.392187        -0.599632         0.751588
 H        -0.656862         1.086369         0.472609
 H         4.115253         1.865092         0.058136
 H         4.205859        -0.696736        -0.150734
