19
Iteration:  1134
 C         4.397593         0.128219         2.473736
 C         3.365178         0.443718         1.541012
 C         1.866968         0.026515         1.789991
 C         1.320598         0.382389         0.425615
 C        -0.145134        -0.011224        -0.001891
 O         1.663941         1.774323         0.475995
 C         3.043009         1.604184         0.650885
 C         3.430313         0.257964         0.052882
 O         2.185578        -0.256809        -0.522921
 H         4.163191         0.446356         3.474286
 H         4.760965        -0.968022         2.553293
 H         5.261887         0.832832         2.093633
 H         1.902847        -1.027421         1.870271
 H         1.445638         0.461904         2.695058
 H        -0.138428        -0.075960        -1.096994
 H        -0.380290        -1.003721         0.379203
 H        -0.994021         0.580614         0.236211
 H         3.709066         2.467764         0.549356
 H         4.247049         0.031228        -0.614769
