19
Iteration:  2633
 C         4.340570         0.875016         2.550851
 C         3.192837         0.660189         1.602385
 C         1.774458         0.448786         1.914481
 C         1.262530         0.329768         0.451281
 C        -0.194325         0.384173         0.072291
 O         2.009231         1.427445        -0.245288
 C         3.355101         1.285384         0.273836
 C         3.344025        -0.264655         0.330132
 O         2.065520        -0.842447        -0.066930
 H         4.350503         1.926832         2.940662
 H         4.066130         0.245516         3.411894
 H         5.384855         0.697060         2.238041
 H         1.423198        -0.531852         2.286496
 H         1.314117         1.260929         2.503080
 H        -0.968904         0.240102         0.878522
 H        -0.385017         1.308725        -0.440644
 H        -0.575724        -0.397646        -0.681801
 H         3.928138         2.055997        -0.300937
 H         4.288315        -0.826249         0.381059
