19
Iteration:  3386
 C         4.303702         0.817768         2.707279
 C         3.270955         0.674314         1.528486
 C         1.855890         0.525489         1.922049
 C         1.338198         0.312052         0.427250
 C        -0.075471         0.327211        -0.036585
 O         1.862534         1.499546        -0.124200
 C         3.221092         1.239722         0.017469
 C         3.329709        -0.216801         0.331270
 O         2.027330        -0.860493         0.027679
 H         4.438188         1.871249         3.112592
 H         3.904951         0.212422         3.504427
 H         5.326957         0.422321         2.595260
 H         1.731261        -0.431953         2.515794
 H         1.468345         1.310305         2.603915
 H        -0.118105         0.141716        -1.131555
 H        -0.665639        -0.444869         0.397703
 H        -0.522485         1.368951         0.131540
 H         3.947350         1.883224        -0.532478
 H         4.237181        -0.748385         0.146790
