19
Iteration:   546charge 0 multiplicity 1
 C         4.554919         0.090529         2.372376
 C         3.310494         0.172283         1.503125
 C         1.879067        -0.542774         1.540187
 C         1.320464         0.355913         0.398807
 C        -0.132175         0.071507         0.065859
 O         1.514435         1.712692         0.678900
 C         2.973381         1.595225         0.957459
 C         3.404063         0.630735         0.018371
 O         2.324635         0.167217        -0.699621
 H         4.193681         0.519418         3.392572
 H         4.943386        -0.844210         2.589104
 H         5.401204         0.723403         2.067769
 H         1.933363        -1.613208         1.173142
 H         1.281293        -0.657851         2.418977
 H        -0.691720         0.907978         0.457381
 H        -0.451458        -0.223165        -0.916360
 H        -0.582355        -0.695280         0.662669
 H         3.356633         2.583745         1.142257
 H         4.382132         0.754006        -0.357754
