19
Iteration:   358charge 0 multiplicity 1
 C         4.526694        -0.089283         2.311945
 C         3.324497         0.303548         1.448035
 C         2.028817        -0.568615         1.489169
 C         1.315407         0.225271         0.383607
 C        -0.225679         0.005090         0.037507
 O         1.502983         1.633089         0.782913
 C         2.876814         1.691650         1.126934
 C         3.481751         0.736604         0.012435
 O         2.323767         0.355771        -0.729412
 H         4.425070         0.249012         3.338908
 H         4.842255        -1.117698         2.232762
 H         5.444719         0.473095         1.923630
 H         1.955506        -1.676189         1.240469
 H         1.429240        -0.618980         2.459540
 H        -0.857822         0.660364         0.652393
 H        -0.385745         0.211285        -1.046143
 H        -0.637175        -0.998847         0.263698
 H         3.212855         2.591428         1.577341
 H         4.317291         0.775990        -0.636267
