19
Iteration:  4547
 C         4.384934         0.779853         2.690917
 C         3.309257         0.675559         1.524478
 C         1.857925         0.439905         1.953011
 C         1.242369         0.381443         0.515302
 C        -0.150512         0.356865        -0.000459
 O         1.818948         1.463266        -0.191254
 C         3.159105         1.343196         0.183803
 C         3.386976        -0.257959         0.261672
 O         2.118127        -0.854351        -0.081959
 H         3.808986         1.360982         3.457040
 H         4.799083        -0.132925         3.163763
 H         5.232738         1.449910         2.443100
 H         1.937273        -0.521963         2.529286
 H         1.375876         1.229853         2.565690
 H        -0.040392         0.799502        -0.971414
 H        -0.757447        -0.587806        -0.061124
 H        -0.852887         0.981231         0.564523
 H         3.853588         1.957717        -0.295662
 H         4.285490        -0.939132        -0.005134
