19
Iteration:  2720
 C         4.400051         0.737708         2.711953
 C         3.246844         0.667945         1.662865
 C         1.735006         0.669390         1.810011
 C         1.275599         0.421578         0.415932
 C        -0.245841         0.227613         0.062170
 O         1.948845         1.523470        -0.320043
 C         3.305772         1.213748         0.092402
 C         3.364390        -0.302841         0.362354
 O         2.084209        -0.803506         0.053375
 H         4.226929         1.604013         3.448518
 H         4.432794        -0.204010         3.320058
 H         5.359600         0.790974         2.136104
 H         1.403665        -0.212566         2.373709
 H         1.309492         1.547212         2.288641
 H        -0.257054        -0.857496         0.381504
 H        -0.930861         0.686319         0.710649
 H        -0.287524         0.395696        -1.075643
 H         3.984114         2.035408        -0.314824
 H         4.167366        -0.953271         0.148973
