19
Iteration:  2998
 C         4.309218         0.784754         2.570894
 C         3.194161         0.606000         1.561725
 C         1.727082         0.591998         1.917989
 C         1.307456         0.382866         0.508771
 C        -0.140112         0.127441         0.042873
 O         2.002760         1.553521        -0.156845
 C         3.350344         1.276243         0.168539
 C         3.343092        -0.299259         0.250530
 O         2.035501        -0.716615        -0.035416
 H         4.192351         1.660909         3.148478
 H         4.076839         0.045416         3.354863
 H         5.366367         0.630118         2.385279
 H         1.414621        -0.319166         2.469460
 H         1.381190         1.592081         2.261006
 H        -0.864233         0.028800         0.870087
 H        -0.533402         0.990479        -0.434525
 H        -0.268806        -0.730615        -0.663580
 H         4.172179         1.976317        -0.117510
 H         4.276510        -0.931009         0.111346
