19
Iteration:  3814
 C         4.211252         0.620609         2.688487
 C         3.309005         0.694217         1.512693
 C         1.851070         0.637923         1.935057
 C         1.287290         0.395343         0.492875
 C        -0.034922         0.124694        -0.008839
 O         1.888490         1.551599        -0.170595
 C         3.187409         1.268253         0.077472
 C         3.362230        -0.157030         0.159690
 O         2.069679        -0.785980         0.101588
 H         3.769407         1.272558         3.443282
 H         4.383515        -0.335043         3.192154
 H         5.240280         1.028768         2.531305
 H         1.519816        -0.211450         2.514491
 H         1.470164         1.587009         2.398767
 H         0.096320        -0.355211        -0.889296
 H        -0.530369        -0.599311         0.626693
 H        -0.598782         1.001434        -0.061175
 H         3.867208         2.021253        -0.303042
 H         4.289183        -0.693127        -0.071865
