19
Iteration:  4340charge 0 multiplicity 1
 C         4.292445         0.706586         2.649719
 C         3.265723         0.724770         1.526328
 C         1.766557         0.541650         1.943708
 C         1.289203         0.237923         0.509551
 C        -0.133742         0.258615         0.020926
 O         1.874137         1.583868        -0.165046
 C         3.254455         1.231039         0.062776
 C         3.375118        -0.219033         0.289503
 O         2.129959        -0.766094        -0.011443
 H         3.961955         1.415964         3.463922
 H         4.537900        -0.315570         3.053367
 H         5.275480         1.090734         2.276878
 H         1.764020        -0.224149         2.714063
 H         1.241878         1.395185         2.316117
 H        -0.196614         0.699444        -0.927321
 H        -0.379109        -0.874699         0.017705
 H        -0.760595         0.810602         0.724785
 H         3.889798         2.011036        -0.414053
 H         4.200558        -0.898635         0.133228
