19
Iteration:  1611
 C         4.381736         0.334666         2.622426
 C         3.315394         0.516200         1.566284
 C         1.836955         0.099629         1.887482
 C         1.290226         0.328325         0.474487
 C        -0.155416         0.211970         0.022747
 O         1.663582         1.661484         0.064200
 C         3.135910         1.608335         0.326803
 C         3.460297         0.106570         0.172084
 O         2.210476        -0.523043        -0.289623
 H         4.216406         1.126959         3.428738
 H         4.214014        -0.687486         2.904608
 H         5.335023         0.283444         2.262932
 H         1.760473        -0.857877         2.399181
 H         1.520776         0.838628         2.633242
 H        -0.273397         0.622011        -1.015061
 H        -0.413728        -0.817956         0.025660
 H        -0.757774         0.619171         0.819319
 H         3.738753         2.429749         0.084695
 H         4.407798        -0.249693        -0.239654
