19
Iteration:  2773
 C         4.410166         0.907755         2.638281
 C         3.277773         0.633036         1.608965
 C         1.733403         0.547145         1.866886
 C         1.280870         0.356829         0.381671
 C        -0.211976         0.368374        -0.028013
 O         1.901553         1.443307        -0.230214
 C         3.322739         1.148354         0.207600
 C         3.377721        -0.340184         0.348650
 O         2.044835        -0.799468         0.042330
 H         4.121018         1.677527         3.412580
 H         4.548330         0.049651         3.283650
 H         5.395344         1.367260         2.418940
 H         1.456251        -0.241982         2.551738
 H         1.398141         1.458020         2.328875
 H        -0.538447        -0.639163        -0.348049
 H        -0.730882         0.554840         0.855516
 H        -0.446325         1.074347        -0.864125
 H         4.066971         1.767872        -0.376834
 H         4.216447        -0.862914         0.020728
