19
Iteration:  1323
 C         4.357049         0.285747         2.600706
 C         3.328984         0.469863         1.549757
 C         1.930968        -0.013686         1.881540
 C         1.296021         0.329584         0.414656
 C        -0.146475         0.149603         0.043551
 O         1.672907         1.769581         0.324902
 C         3.058906         1.552657         0.506107
 C         3.408953         0.193619        -0.017130
 O         2.237517        -0.391834        -0.481312
 H         4.041592         0.559761         3.644649
 H         4.510733        -0.840239         2.686076
 H         5.376730         0.809814         2.585279
 H         1.922699        -1.096793         2.063615
 H         1.363080         0.469935         2.666097
 H        -0.091337        -0.659687        -0.676884
 H        -0.759661        -0.227089         0.874814
 H        -0.528871         1.179128        -0.194118
 H         3.600386         2.502423         0.317697
 H         4.101520        -0.349191        -0.649352
