19
Iteration:  4054
 C         4.328182         0.890595         2.669729
 C         3.329406         0.464235         1.542934
 C         1.782854         0.470534         1.985650
 C         1.225996         0.403861         0.493228
 C        -0.204568         0.197752        -0.038958
 O         1.983203         1.549887        -0.142511
 C         3.264316         1.215078         0.162485
 C         3.370378        -0.225808         0.191463
 O         2.067498        -0.718148        -0.018201
 H         3.888989         1.793287         3.027712
 H         4.366960         0.206950         3.504265
 H         5.328304         1.195721         2.349967
 H         1.446411        -0.432078         2.455524
 H         1.508397         1.285132         2.639288
 H        -0.062067        -0.200753        -1.080001
 H        -0.859980        -0.421036         0.555345
 H        -0.707826         1.195228        -0.026144
 H         3.900700         2.003698        -0.136207
 H         4.142843        -0.959762        -0.229409
