19
Iteration:  1678charge 0 multiplicity 1
 C         4.377072         0.579800         2.600556
 C         3.179539         0.403291         1.606545
 C         1.761408         0.067620         1.901327
 C         1.287641         0.426808         0.389104
 C        -0.047897         0.161676         0.094288
 O         1.828402         1.713592         0.074128
 C         3.229358         1.417031         0.429110
 C         3.401666        -0.017363         0.118129
 O         2.095403        -0.489361        -0.345150
 H         4.171179         1.226959         3.515656
 H         4.898198        -0.339456         2.757176
 H         5.165943         1.126621         2.123055
 H         1.536968        -0.955141         2.255923
 H         1.261793         0.769599         2.591915
 H        -0.652184         1.018407         0.341089
 H        -0.245247         0.057788        -0.955189
 H        -0.458464        -0.725585         0.658965
 H         3.965655         2.273512         0.340479
 H         4.224219        -0.519547        -0.396953
