19
Iteration:  4877charge 0 multiplicity 1
 C         4.338324         0.826510         2.615107
 C         3.294549         0.582449         1.527342
 C         1.770739         0.364116         1.886459
 C         1.303889         0.332801         0.410277
 C        -0.191900         0.456036         0.057413
 O         1.828304         1.398044        -0.177676
 C         3.161765         1.274420         0.171456
 C         3.454250        -0.121398         0.291905
 O         2.188423        -0.804205         0.050339
 H         4.387719         1.849732         2.940718
 H         4.119053         0.205927         3.471368
 H         5.313877         0.527565         2.252474
 H         1.660659        -0.706863         2.342875
 H         1.213093         1.158518         2.491353
 H        -0.215612         0.273801        -1.042397
 H        -0.925980        -0.249773         0.495380
 H        -0.527833         1.476988         0.290989
 H         3.847578         2.133229        -0.070728
 H         4.201773        -0.785654        -0.086508
