19
Iteration:  3577
 C         4.323621         0.927112         2.537931
 C         3.194066         0.575390         1.585916
 C         1.769433         0.464869         1.935389
 C         1.307276         0.307630         0.423759
 C        -0.203560         0.331575         0.017194
 O         1.959811         1.443250        -0.164909
 C         3.314810         1.266889         0.241293
 C         3.374355        -0.285844         0.355967
 O         2.109413        -0.757322        -0.073131
 H         4.288376         1.955717         2.863141
 H         3.981601         0.360720         3.424658
 H         5.279018         0.559983         2.179331
 H         1.404609        -0.312686         2.579051
 H         1.340300         1.370955         2.390816
 H        -0.471557         0.317487        -1.058818
 H        -0.706081        -0.661201         0.437103
 H        -0.566188         1.330482         0.434735
 H         4.097578         1.901104        -0.115155
 H         4.208408        -0.883786         0.069535
