19
Iteration:  1469
 C         4.467505         0.358585         2.553172
 C         3.299382         0.390221         1.635044
 C         1.765690         0.111587         1.769099
 C         1.269804         0.444885         0.378689
 C        -0.163217         0.029176         0.094283
 O         1.767451         1.736592         0.151336
 C         3.083775         1.490529         0.544950
 C         3.458348         0.091318         0.143611
 O         2.159977        -0.354992        -0.425658
 H         4.201771         0.860139         3.601945
 H         4.639991        -0.686796         2.743189
 H         5.433030         0.722416         2.377149
 H         1.441892        -0.865179         2.145727
 H         1.357882         0.874913         2.485073
 H        -0.568082        -0.104541         1.104837
 H        -0.672368         0.814549        -0.457592
 H         0.037200        -0.831569        -0.465479
 H         3.731445         2.414277         0.467802
 H         4.297174        -0.302564        -0.477312
