19
Iteration:  1991
 C         4.321790         0.742634         2.600042
 C         3.305091         0.457317         1.606955
 C         1.728753         0.343441         1.869113
 C         1.282303         0.391489         0.387925
 C        -0.117578         0.214227         0.080459
 O         1.903867         1.688046         0.014652
 C         3.240554         1.272337         0.306083
 C         3.388558        -0.232133         0.145643
 O         2.078899        -0.629367        -0.182503
 H         4.096299         1.668443         3.223119
 H         4.539448         0.055547         3.533970
 H         5.316165         0.908886         2.085603
 H         1.439228        -0.618211         2.331629
 H         1.320012         1.189802         2.477470
 H        -0.733559         0.251985         0.973333
 H        -0.572757         0.938263        -0.652799
 H        -0.171141        -0.791174        -0.434653
 H         3.937370         2.033886        -0.064216
 H         4.229589        -0.869162        -0.176936
