19
Iteration:  2942
 C         4.265072         0.838444         2.512405
 C         3.151063         0.620924         1.617954
 C         1.708833         0.461724         1.862219
 C         1.350408         0.308611         0.451015
 C        -0.155978         0.362211         0.094187
 O         1.982248         1.458799        -0.243111
 C         3.303381         1.245508         0.190023
 C         3.391750        -0.279187         0.368244
 O         2.091855        -0.744242         0.001509
 H         3.933091         1.431478         3.317704
 H         4.636601        -0.056806         3.049430
 H         5.145708         1.373529         2.184137
 H         1.680343        -0.389905         2.562047
 H         1.290919         1.328059         2.366893
 H        -0.733363        -0.315363         0.696411
 H        -0.488524         1.413631         0.131561
 H        -0.280700         0.068401        -0.931368
 H         4.108487         1.901692        -0.332067
 H         4.266249        -0.920202         0.232927
