19
Iteration:   614charge 0 multiplicity 1
 C         4.544958        -0.035165         2.433536
 C         3.391977         0.298335         1.400820
 C         1.996711        -0.278183         1.607379
 C         1.252330         0.389507         0.460076
 C        -0.103762        -0.042810        -0.125884
 O         1.508022         1.757680         0.762695
 C         2.977292         1.634503         0.930821
 C         3.391177         0.548097        -0.022303
 O         2.173798         0.046270        -0.594159
 H         4.081996         0.120893         3.451543
 H         4.956319        -1.023699         2.319237
 H         5.357642         0.641709         2.382066
 H         2.090813        -1.347868         1.508266
 H         1.616302        -0.053701         2.635992
 H        -0.400875        -0.943043         0.384127
 H        -0.831858         0.769488        -0.118095
 H        -0.016945        -0.266365        -1.208193
 H         3.513432         2.562886         1.135199
 H         4.221569         0.521692        -0.818066
