19
Iteration:  1425
 C         4.386424         0.266430         2.578779
 C         3.286031         0.463279         1.506199
 C         1.921675         0.105736         1.827363
 C         1.295979         0.345160         0.435299
 C        -0.134444         0.135719        -0.002639
 O         1.677698         1.708567         0.280051
 C         3.048170         1.558116         0.516522
 C         3.387813         0.175757         0.043006
 O         2.224727        -0.437266        -0.356449
 H         4.423364         1.107605         3.410035
 H         4.476115        -0.709963         3.043434
 H         5.393366         0.312763         2.244521
 H         1.755269        -0.967524         1.988356
 H         1.406916         0.764118         2.553451
 H        -0.664038         1.046310         0.335717
 H        -0.061863        -0.067508        -1.101644
 H        -0.549779        -0.689335         0.492895
 H         3.666507         2.406217         0.313944
 H         4.327494        -0.151720        -0.343244
