19
Iteration:  4180charge 0 multiplicity 1
 C         4.418066         0.757040         2.633771
 C         3.235119         0.595420         1.592385
 C         1.739535         0.588363         1.862416
 C         1.263809         0.448609         0.382406
 C        -0.189960         0.185363         0.079518
 O         1.913695         1.529548        -0.270054
 C         3.221497         1.313045         0.278589
 C         3.421887        -0.249733         0.332158
 O         2.104307        -0.808969        -0.022571
 H         4.254566         1.364022         3.601344
 H         4.680695        -0.288406         3.020993
 H         5.359254         1.055835         2.093507
 H         1.298904        -0.331514         2.361766
 H         1.258032         1.584563         2.191155
 H        -0.516871         0.039203        -0.936137
 H        -0.394779        -0.816177         0.630915
 H        -0.870963         0.974893         0.439547
 H         3.835570         1.986803        -0.239751
 H         4.407816        -0.782058         0.147347
