19
Iteration:  3852
 C         4.355002         0.681069         2.666861
 C         3.237417         0.637843         1.601311
 C         1.780396         0.628140         1.891374
 C         1.297768         0.353160         0.446845
 C        -0.206793         0.120697         0.045605
 O         1.918907         1.534320        -0.252288
 C         3.241093         1.274901         0.168015
 C         3.381724        -0.182748         0.335345
 O         2.126400        -0.701642        -0.043495
 H         3.961576         1.379007         3.439677
 H         4.357239        -0.348567         3.083095
 H         5.358085         1.000263         2.334284
 H         1.578121        -0.265410         2.525934
 H         1.526089         1.571033         2.366922
 H        -0.255542        -0.365520        -1.017697
 H        -0.575829        -0.653541         0.748065
 H        -0.873288         1.030522         0.042216
 H         3.893891         2.059218        -0.177353
 H         4.186661        -0.909177         0.085797
