19
Iteration:  1681charge 0 multiplicity 1
 C         4.373771         0.579877         2.599218
 C         3.198757         0.439386         1.589459
 C         1.748146         0.056946         1.897891
 C         1.300466         0.425706         0.403228
 C        -0.073296         0.174535         0.103563
 O         1.845038         1.696758         0.086028
 C         3.214847         1.448180         0.443707
 C         3.396543        -0.042622         0.118137
 O         2.104304        -0.505927        -0.348736
 H         4.068617         1.175500         3.429586
 H         4.871887        -0.393422         2.771038
 H         5.222914         1.148751         2.028271
 H         1.494948        -0.963099         2.296469
 H         1.228316         0.795975         2.557875
 H        -0.633532         1.049338         0.355523
 H        -0.217336         0.126956        -1.023308
 H        -0.369902        -0.774496         0.570485
 H         3.917605         2.309109         0.323469
 H         4.231354        -0.525383        -0.401629
