19
Iteration:  2754charge 0 multiplicity 1
 C         4.284535         0.790193         2.553183
 C         3.148523         0.620270         1.651638
 C         1.718970         0.611243         1.914068
 C         1.295917         0.316131         0.526755
 C        -0.082827         0.394149         0.099586
 O         1.976085         1.430635        -0.334358
 C         3.244013         1.223794         0.093005
 C         3.392510        -0.234294         0.417519
 O         2.140356        -0.857797        -0.006233
 H         4.125926         1.538331         3.365848
 H         4.664575        -0.126787         3.096564
 H         5.138498         1.262549         2.022301
 H         1.415547        -0.265289         2.522383
 H         1.210062         1.521189         2.282969
 H        -0.447046        -0.595082        -0.280340
 H        -0.820936         0.818716         0.771240
 H        -0.216380         0.997411        -0.847151
 H         3.906835         2.054882        -0.227099
 H         4.063250        -1.067159         0.239144
