19
Iteration:  3816
 C         4.202688         0.624057         2.674432
 C         3.303749         0.695587         1.508063
 C         1.862655         0.643112         1.915953
 C         1.287677         0.367631         0.488563
 C        -0.016653         0.123007        -0.008682
 O         1.888756         1.571773        -0.153078
 C         3.199837         1.272354         0.076154
 C         3.341921        -0.153027         0.162693
 O         2.065465        -0.794293         0.112218
 H         3.762493         1.240548         3.472993
 H         4.343405        -0.360487         3.193450
 H         5.237683         1.034228         2.604062
 H         1.532587        -0.203388         2.534031
 H         1.504468         1.576506         2.419033
 H         0.141341        -0.374125        -0.908868
 H        -0.469855        -0.556086         0.645480
 H        -0.651681         0.984863        -0.091112
 H         3.869045         2.027746        -0.388025
 H         4.198147        -0.706683        -0.066768
