19
Iteration:  3633charge 0 multiplicity 1
 C         4.282403         0.746607         2.572907
 C         3.211190         0.585150         1.573281
 C         1.808111         0.595541         1.892543
 C         1.317104         0.411716         0.441176
 C        -0.204431         0.174676         0.039523
 O         1.932435         1.497561        -0.215238
 C         3.298346         1.361356         0.203986
 C         3.408304        -0.304838         0.353162
 O         2.083323        -0.733835        -0.001835
 H         3.985413         1.465372         3.338599
 H         4.387682        -0.217931         3.108920
 H         5.212926         0.968370         2.053522
 H         1.531030        -0.284440         2.474686
 H         1.384441         1.493372         2.357961
 H        -0.069043        -0.269763        -0.994907
 H        -0.715934        -0.456864         0.813724
 H        -0.835773         1.147428        -0.053974
 H         4.071856         2.071111        -0.063799
 H         4.263289        -1.005289         0.085558
