19
Iteration:  1546charge 0 multiplicity 1
 C         4.357752         0.537689         2.561502
 C         3.318189         0.399491         1.552504
 C         1.802379         0.065533         1.865209
 C         1.283999         0.421007         0.470783
 C        -0.227467         0.161198         0.042338
 O         1.772968         1.709040         0.194077
 C         3.181612         1.465800         0.552515
 C         3.430532        -0.017503         0.087211
 O         2.184608        -0.486786        -0.454290
 H         4.247931         1.306257         3.429729
 H         4.533930        -0.365005         3.145147
 H         5.303646         0.737518         2.101563
 H         1.563590        -0.939507         2.213183
 H         1.400335         0.842831         2.554404
 H        -0.025942        -0.840447        -0.398903
 H        -0.852307         0.092950         0.884534
 H        -0.587103         0.926889        -0.626209
 H         3.905196         2.289509         0.419177
 H         4.340699        -0.019152        -0.578697
