19
Iteration:  4613charge 0 multiplicity 1
 C         4.378337         0.646604         2.630916
 C         3.257524         0.664736         1.612966
 C         1.687673         0.537981         1.886725
 C         1.273430         0.404784         0.401539
 C        -0.134800         0.082494         0.144585
 O         1.903210         1.546569        -0.212632
 C         3.281428         1.281035         0.257928
 C         3.373503        -0.211383         0.255938
 O         2.088908        -0.640641        -0.112652
 H         4.170231         1.535946         3.262311
 H         4.541407        -0.304932         3.178233
 H         5.343628         0.907316         2.158804
 H         1.412824        -0.405905         2.447939
 H         1.283210         1.447601         2.389303
 H        -0.265112        -0.382249        -0.881571
 H        -0.406752        -0.587082         1.015114
 H        -0.712800         1.001276         0.340592
 H         3.936513         2.005355        -0.282767
 H         4.334827        -0.609444        -0.148644
