19
Iteration:   908
 C         4.450959         0.197893         2.577472
 C         3.377525         0.316931         1.492650
 C         2.023167        -0.314444         1.624464
 C         1.306744         0.327755         0.434102
 C        -0.177148         0.127603        -0.012716
 O         1.599283         1.731875         0.644258
 C         2.978071         1.647987         0.797743
 C         3.415424         0.424637        -0.071439
 O         2.161676        -0.182221        -0.649319
 H         4.153958         0.816251         3.544884
 H         4.567367        -0.868348         2.721235
 H         5.441832         0.543677         2.320437
 H         2.118623        -1.389195         1.771080
 H         1.493092         0.221809         2.484218
 H        -0.061141        -0.014176        -1.127481
 H        -0.697206        -0.681680         0.563777
 H        -0.740297         1.052557         0.142893
 H         3.580043         2.585526         0.733795
 H         4.380840         0.201129        -0.607931
