19
Iteration:     3charge 0 multiplicity 1
 C         4.623445        -0.166541         2.134254
 C         3.359338         0.197523         1.379519
 C         2.128012        -0.691033         1.239443
 C         1.328492         0.296997         0.380675
 C        -0.063862        -0.021426        -0.101688
 O         1.374626         1.500789         1.150254
 C         2.776024         1.611281         1.318758
 C         3.347501         0.990526         0.054175
 O         2.238400         0.581191        -0.702048
 H         4.454418        -0.338554         3.189647
 H         5.123178        -1.099415         1.650545
 H         5.384465         0.587346         2.036555
 H         2.340436        -1.649955         0.683898
 H         1.657791        -1.000221         2.161508
 H        -0.654266        -0.247424         0.750207
 H        -0.462225         0.855509        -0.597845
 H        -0.020096        -0.873122        -0.715850
 H         3.097008         2.427012         1.923762
 H         4.184523         1.446100        -0.521398
