19
Iteration:  4846
 C         4.329297         0.854541         2.629301
 C         3.290554         0.608273         1.594432
 C         1.821941         0.408751         1.978038
 C         1.311673         0.307795         0.433575
 C        -0.153382         0.289675         0.028812
 O         1.873763         1.533265        -0.119276
 C         3.203205         1.225738         0.144745
 C         3.408998        -0.185220         0.300948
 O         2.048965        -0.752090        -0.107778
 H         4.477029         1.894588         2.915501
 H         4.155593         0.263560         3.531144
 H         5.295447         0.437637         2.283138
 H         1.800036        -0.516981         2.572192
 H         1.412171         1.335751         2.385170
 H        -0.209942        -0.069651        -0.999345
 H        -0.867892        -0.357362         0.665772
 H        -0.635176         1.230141        -0.257908
 H         4.030723         1.964878        -0.088284
 H         4.147147        -0.825383        -0.125124
