19
Iteration:  2001charge 0 multiplicity 1
 C         4.294475         0.760064         2.623246
 C         3.177619         0.487816         1.578654
 C         1.815716         0.310165         1.882929
 C         1.344555         0.398326         0.438403
 C        -0.188676         0.257428         0.042741
 O         1.908417         1.585930         0.030016
 C         3.264635         1.298080         0.252752
 C         3.453189        -0.174910         0.207770
 O         2.071490        -0.656609        -0.187172
 H         4.148583         1.662408         3.186748
 H         4.554826        -0.266992         3.100201
 H         5.177091         0.989689         1.958894
 H         1.523430        -0.605466         2.426712
 H         1.494243         1.279553         2.346193
 H        -0.777579         0.155394         0.941641
 H        -0.490051         1.189447        -0.472557
 H        -0.431191        -0.599406        -0.620991
 H         3.863884         2.156055        -0.023237
 H         4.239280        -0.898554        -0.077590
