19
Iteration:   793
 C         4.546116        -0.064118         2.396662
 C         3.312896         0.349387         1.542907
 C         1.939001        -0.229314         1.710944
 C         1.270351         0.359152         0.381724
 C        -0.093590         0.056481        -0.045116
 O         1.479260         1.759990         0.615788
 C         2.939639         1.754864         0.803050
 C         3.401412         0.536029        -0.025785
 O         2.322694        -0.168012        -0.517625
 H         4.361111         0.003522         3.448068
 H         4.821009        -1.172482         2.146645
 H         5.508868         0.562737         2.233701
 H         2.033226        -1.355222         1.664938
 H         1.381779         0.090718         2.588302
 H        -0.888224         0.296019         0.720147
 H        -0.292344         0.752766        -0.889954
 H        -0.309177        -1.011562        -0.326156
 H         3.225913         2.815693         0.725184
 H         4.446311         0.406995        -0.474348
