19
Iteration:  1411
 C         4.486454         0.299305         2.636317
 C         3.380332         0.429719         1.605866
 C         1.854550        -0.009132         1.908625
 C         1.272091         0.343352         0.451423
 C        -0.145772         0.218541         0.000156
 O         1.603245         1.726009         0.212502
 C         3.086676         1.625396         0.504612
 C         3.451445         0.165408         0.054742
 O         2.217922        -0.496273        -0.460064
 H         4.260435         1.087223         3.438026
 H         4.202806        -0.656509         3.155522
 H         5.382852         0.398824         1.978266
 H         1.864148        -1.048242         2.280669
 H         1.501620         0.594206         2.741781
 H        -0.710648         1.142549        -0.147120
 H        -0.244859        -0.262777        -1.072881
 H        -0.898464        -0.416368         0.610961
 H         3.563902         2.564512         0.304723
 H         4.228162         0.040465        -0.700505
