19
Iteration:  3662
 C         4.470903         0.670044         2.618038
 C         3.079119         0.670319         1.783096
 C         1.607405         0.683406         1.851851
 C         1.369314         0.327132         0.270049
 C        -0.200463         0.162041         0.187966
 O         1.966782         1.486108        -0.294462
 C         3.290816         1.332703         0.182316
 C         3.407298        -0.218894         0.375740
 O         2.116707        -0.745010        -0.104259
 H         4.335874         1.439012         3.386883
 H         4.534977        -0.311694         3.120233
 H         5.425510         0.847899         2.088336
 H         1.347072        -0.246473         2.366227
 H         0.848223         1.486261         2.007388
 H        -0.601337        -0.077830        -0.724108
 H        -0.499640        -0.661582         0.939695
 H        -0.587827         1.087392         0.523040
 H         4.202636         1.873109        -0.086762
 H         4.286795        -0.839303         0.089133
