19
Iteration:  2746charge 0 multiplicity 1
 C         4.267458         0.752938         2.487307
 C         3.146345         0.635420         1.643911
 C         1.732630         0.618084         1.902896
 C         1.330397         0.288539         0.436285
 C        -0.136696         0.374554         0.072245
 O         1.962824         1.413236        -0.347891
 C         3.312114         1.260143         0.161611
 C         3.370102        -0.227299         0.439588
 O         2.103521        -0.811043         0.050423
 H         3.997391         1.453847         3.269394
 H         4.500090        -0.200725         3.043395
 H         5.189142         1.201724         2.109753
 H         1.493767        -0.228783         2.607882
 H         1.299416         1.545342         2.383787
 H        -0.437177        -0.678744         0.015186
 H        -0.737709         0.724414         1.015959
 H        -0.169227         0.918190        -0.871213
 H         4.044281         1.945242        -0.170053
 H         4.408780        -0.780031         0.190806
