19
Iteration:   472
 C         4.550181        -0.125576         2.269019
 C         3.320862         0.356580         1.481650
 C         2.017499        -0.406467         1.670999
 C         1.311839         0.262866         0.379153
 C        -0.095871         0.004052        -0.019274
 O         1.449908         1.734656         0.707219
 C         2.843983         1.707348         1.072913
 C         3.423027         0.620771         0.055916
 O         2.282177         0.184438        -0.702655
 H         4.341173        -0.188670         3.362399
 H         4.814543        -1.118276         1.863837
 H         5.458798         0.382670         2.191625
 H         2.269067        -1.386164         1.228512
 H         1.574145        -0.567168         2.651067
 H        -0.213268        -0.413315        -1.044087
 H        -0.637137        -0.639843         0.678301
 H        -0.604008         0.974072        -0.140507
 H         3.403678         2.611569         1.239424
 H         4.326858         0.627964        -0.447932
