19
Iteration:  3430
 C         4.330459         0.902176         2.560296
 C         3.268157         0.438273         1.662293
 C         1.700162         0.490844         1.838388
 C         1.274397         0.399094         0.375825
 C        -0.208162         0.274477         0.048858
 O         2.002093         1.601517        -0.221833
 C         3.303891         1.252696         0.280915
 C         3.395068        -0.329530         0.364224
 O         2.090094        -0.814443        -0.033633
 H         4.107569         2.004973         2.653720
 H         4.480736         0.331242         3.464738
 H         5.265710         0.971397         1.979526
 H         1.138632        -0.293713         2.423142
 H         1.329342         1.459823         2.216881
 H        -0.625384        -0.420900        -0.689781
 H        -0.405954        -0.258484         0.933766
 H        -0.758570         1.250210         0.099317
 H         3.905378         2.055725        -0.018856
 H         4.245108        -0.865312         0.021166
