19
Iteration:  1769charge 0 multiplicity 1
 C         4.381296         0.471601         2.582954
 C         3.276663         0.455747         1.591913
 C         1.643655         0.331209         1.867238
 C         1.273080         0.371427         0.432540
 C        -0.111584        -0.014012         0.106770
 O         1.851772         1.794566         0.100006
 C         3.240219         1.421586         0.352523
 C         3.393494        -0.013744         0.146311
 O         2.143689        -0.523784        -0.334465
 H         4.518829         1.395801         3.023690
 H         4.345548        -0.343881         3.318451
 H         5.452593         0.374941         2.210235
 H         1.478575        -0.674988         2.338118
 H         1.222913         1.110427         2.531225
 H        -0.496480        -0.873758         0.624234
 H        -0.706944         0.895687         0.311546
 H        -0.322564        -0.205819        -0.907166
 H         3.993208         2.098107         0.092347
 H         4.340798        -0.402953        -0.190165
