19
Iteration:  1378
 C         4.329667         0.437920         2.492578
 C         3.233601         0.404019         1.560062
 C         1.833193        -0.063417         1.781430
 C         1.304496         0.367067         0.415174
 C        -0.099617         0.171821         0.036823
 O         1.717906         1.748700         0.341494
 C         3.163701         1.526618         0.606885
 C         3.442811         0.099685         0.127261
 O         2.193391        -0.427342        -0.486032
 H         4.192142         1.294683         3.225048
 H         4.720750        -0.535581         2.912344
 H         5.288688         0.690917         1.920858
 H         1.920845        -1.154895         1.901588
 H         1.256826         0.465135         2.531887
 H        -0.452492         0.968821        -0.625927
 H        -0.306920        -0.920451        -0.183843
 H        -0.691979         0.456603         0.997407
 H         3.618285         2.516156         0.442189
 H         4.293283        -0.256143        -0.480973
