19
Iteration:  4118
 C         4.335489         0.732603         2.638940
 C         3.286594         0.630975         1.607793
 C         1.766624         0.528644         1.840054
 C         1.308825         0.337227         0.420496
 C        -0.248819         0.218096         0.061184
 O         1.927586         1.514003        -0.271159
 C         3.205416         1.310393         0.198947
 C         3.415747        -0.189208         0.271228
 O         2.126185        -0.776432         0.064074
 H         4.385104         1.712972         3.109916
 H         4.089996         0.089341         3.474776
 H         5.276628         0.495300         2.118633
 H         1.556019        -0.338671         2.409401
 H         1.408331         1.372105         2.404913
 H        -0.360293         0.490807        -0.995762
 H        -0.652011        -0.767553         0.266532
 H        -0.700904         0.926784         0.780422
 H         3.867430         2.077787        -0.138770
 H         4.351718        -0.714704        -0.016260
