19
Iteration:  3774charge 0 multiplicity 1
 C         4.391638         0.833058         2.548623
 C         3.101477         0.684509         1.652278
 C         1.620456         0.462362         1.833728
 C         1.357821         0.346892         0.326395
 C        -0.146296         0.220017         0.133336
 O         1.986610         1.531250        -0.216474
 C         3.243658         1.280494         0.292225
 C         3.402998        -0.251739         0.405715
 O         2.136134        -0.820240        -0.117514
 H         4.529074         1.792498         3.100877
 H         4.568976        -0.001896         3.282430
 H         5.228292         0.837797         1.811428
 H         1.492238        -0.464779         2.418466
 H         0.942759         1.218778         2.263832
 H        -0.675939         0.362766        -0.892844
 H        -0.607816        -0.490024         0.804952
 H        -0.490570         1.215335         0.639996
 H         4.033426         1.993494        -0.003483
 H         4.276016        -0.779981         0.171538
