19
Iteration:  2412
 C         4.329023         0.720950         2.631006
 C         3.226775         0.625252         1.548968
 C         1.776923         0.675003         1.967390
 C         1.244365         0.408242         0.411960
 C        -0.277986         0.193861         0.058496
 O         1.942806         1.470721        -0.348080
 C         3.388360         1.226049         0.178602
 C         3.391809        -0.288565         0.365668
 O         2.125569        -0.688912         0.063336
 H         3.983109         1.404581         3.469142
 H         4.361029        -0.264495         3.045354
 H         5.318802         1.041469         2.239575
 H         1.514632        -0.158325         2.610037
 H         1.412112         1.569584         2.463148
 H        -0.563622        -0.854677         0.013523
 H        -1.007029         0.705182         0.744125
 H        -0.460933         0.510638        -0.990337
 H         4.180356         1.786738        -0.392805
 H         4.139806        -1.004151        -0.026282
