19
Iteration:  2289
 C         4.345836         0.872463         2.670850
 C         3.281136         0.434767         1.624890
 C         1.818612         0.518930         1.940208
 C         1.286063         0.420541         0.465149
 C        -0.167459         0.244365         0.049589
 O         1.966384         1.544314        -0.241728
 C         3.224284         1.153741         0.186341
 C         3.344862        -0.283101         0.274170
 O         2.025298        -0.656919        -0.064193
 H         4.302930         1.987467         2.804219
 H         4.295508         0.390647         3.642401
 H         5.323602         0.640983         2.237248
 H         1.427269        -0.290135         2.574098
 H         1.406712         1.465971         2.308869
 H        -0.958842         0.200804         0.831584
 H        -0.434185         0.806202        -0.874383
 H        -0.163339        -0.817014        -0.285645
 H         4.054271         1.863768        -0.168558
 H         4.197482        -0.815854        -0.143370
