19
Iteration:  2627charge 0 multiplicity 1
 C         4.269229         0.875515         2.529376
 C         3.218137         0.596795         1.554009
 C         1.742920         0.485265         1.931153
 C         1.310520         0.325925         0.433828
 C        -0.202829         0.369237         0.055566
 O         2.029759         1.470797        -0.195681
 C         3.290502         1.297701         0.233949
 C         3.334054        -0.285947         0.309101
 O         2.106133        -0.827390        -0.016472
 H         4.292987         1.868426         2.977519
 H         4.295666         0.223899         3.437200
 H         5.293330         0.708759         2.179610
 H         1.537978        -0.507254         2.383446
 H         1.233992         1.265897         2.516419
 H        -0.848370         0.320426         0.919971
 H        -0.538763         1.309019        -0.444524
 H        -0.428139        -0.414988        -0.635930
 H         4.143561         1.802378        -0.258934
 H         4.215345        -0.878784         0.320098
