19
Iteration:   865charge 0 multiplicity 1
 C         4.397816         0.196597         2.475409
 C         3.309614         0.270476         1.501024
 C         1.938706        -0.374841         1.609791
 C         1.283207         0.324264         0.327698
 C        -0.139458         0.148920         0.143955
 O         1.614556         1.750162         0.525066
 C         2.978333         1.632143         0.915310
 C         3.434605         0.457960        -0.033296
 O         2.300102        -0.123422        -0.622366
 H         4.090616         0.895600         3.328360
 H         4.772841        -0.748628         2.740474
 H         5.245185         0.668180         2.037091
 H         1.852019        -1.431268         1.349613
 H         1.410210        -0.212865         2.590830
 H        -0.274637        -0.939623         0.013726
 H        -0.620753         0.447799         1.096488
 H        -0.612083         0.670096        -0.680634
 H         3.591634         2.539487         0.964443
 H         4.390963         0.223174        -0.592533
