19
Iteration:  3958
 C         4.291492         0.755670         2.593264
 C         3.239830         0.672478         1.571402
 C         1.753750         0.534979         1.872772
 C         1.293008         0.385259         0.446677
 C        -0.192729         0.157883         0.060518
 O         1.945427         1.550911        -0.150353
 C         3.331591         1.174348         0.124694
 C         3.356771        -0.217430         0.327227
 O         2.124014        -0.706742        -0.041866
 H         4.239350         1.669016         3.210098
 H         4.034126         0.035170         3.401842
 H         5.340041         0.662618         2.302096
 H         1.404661        -0.293701         2.560523
 H         1.331335         1.464117         2.305421
 H        -0.381969         0.294481        -1.001595
 H        -0.575257        -0.787517         0.297411
 H        -0.895404         0.720215         0.653313
 H         4.080079         1.895260        -0.146458
 H         4.350591        -0.749927         0.096692
