19
Iteration:  4637
 C         4.260456         0.595279         2.619417
 C         3.315239         0.668217         1.539060
 C         1.894273         0.462504         1.949306
 C         1.289333         0.321416         0.428827
 C        -0.184003         0.256755         0.034398
 O         1.823536         1.535865        -0.163364
 C         3.132244         1.356145         0.116548
 C         3.410905        -0.120030         0.261974
 O         2.167838        -0.778279         0.035170
 H         4.269647         1.650291         3.030654
 H         3.988541        -0.225305         3.371520
 H         5.318464         0.361934         2.307866
 H         1.796029        -0.322990         2.706029
 H         1.638411         1.459539         2.363373
 H         0.014214        -0.246739        -1.023256
 H        -0.702781        -0.407147         0.709413
 H        -0.660123         1.284489         0.009609
 H         3.664255         2.323566        -0.111668
 H         4.307014        -0.512263        -0.140139
