19
Iteration:    25charge 0 multiplicity 1
 C         4.690637        -0.196069         2.137336
 C         3.332965         0.178733         1.507858
 C         2.138915        -0.714376         1.168229
 C         1.310604         0.348569         0.350637
 C        -0.155458        -0.074737         0.049164
 O         1.352070         1.611385         0.973854
 C         2.726978         1.581480         1.361308
 C         3.370087         1.049027         0.134038
 O         2.331152         0.536135        -0.751962
 H         4.660705        -0.206311         3.210802
 H         5.029172        -1.262383         1.748580
 H         5.469802         0.457857         1.825256
 H         2.362582        -1.635483         0.504165
 H         1.591338        -1.102527         2.000745
 H        -0.407279        -1.025199         0.439112
 H        -0.825477         0.690612         0.440850
 H        -0.264119        -0.135514        -0.997788
 H         3.037637         2.514328         1.766209
 H         4.340231         1.304233        -0.400259
