19
Iteration:  2141
 C         4.323103         0.818337         2.580762
 C         3.211304         0.549041         1.612705
 C         1.750868         0.325462         1.948491
 C         1.287950         0.316116         0.398424
 C        -0.154085         0.397008         0.072057
 O         1.828304         1.518349        -0.121827
 C         3.232123         1.249602         0.154761
 C         3.440354        -0.201418         0.267451
 O         2.192598        -0.728179        -0.074713
 H         4.526105         1.834798         2.989780
 H         4.146664         0.154380         3.410094
 H         5.277922         0.391384         2.161833
 H         1.468671        -0.582816         2.557163
 H         1.312532         1.289177         2.349578
 H        -0.143864         0.995293        -0.903670
 H        -0.749572        -0.537837         0.121196
 H        -0.634216         1.175738         0.772895
 H         4.039457         2.029936        -0.200040
 H         4.240980        -0.875452         0.035138
