19
Iteration:  1799
 C         4.362911         0.535727         2.569407
 C         3.273580         0.486741         1.534638
 C         1.779433         0.254096         1.966413
 C         1.252526         0.391997         0.471050
 C        -0.158807         0.208965         0.064185
 O         1.815076         1.662064        -0.021545
 C         3.138126         1.415037         0.376931
 C         3.447383        -0.075549         0.187386
 O         2.209925        -0.570539        -0.303861
 H         4.175954         1.328605         3.458230
 H         4.411781        -0.440197         3.095959
 H         5.406388         0.593596         2.167455
 H         1.599641        -0.771751         2.425169
 H         1.409918         1.035809         2.675433
 H        -0.452146        -0.832202        -0.062688
 H        -0.943457         0.409760         0.903513
 H        -0.415184         0.739375        -0.899931
 H         3.780990         2.206553         0.183141
 H         4.403638        -0.352754        -0.219716
