19
Iteration:  2886charge 0 multiplicity 1
 C         4.311255         0.747345         2.618142
 C         3.195675         0.685378         1.513331
 C         1.759725         0.660012         1.941710
 C         1.334592         0.372464         0.466061
 C        -0.121324         0.161803         0.016301
 O         1.973425         1.572290        -0.234261
 C         3.295780         1.244838         0.121066
 C         3.360542        -0.355283         0.368445
 O         2.038129        -0.775530         0.037551
 H         4.205427         1.715363         3.058308
 H         3.928227        -0.049287         3.279605
 H         5.279409         0.557377         2.168330
 H         1.613581        -0.152263         2.661928
 H         1.412841         1.598135         2.376710
 H        -0.381484        -0.873216        -0.089559
 H        -0.815925         0.515337         0.833523
 H        -0.266750         0.635677        -0.909933
 H         3.926940         2.026694        -0.239110
 H         4.199021        -0.947485         0.032909
