19
Iteration:   267charge 0 multiplicity 1
 C         4.591556        -0.061368         2.253198
 C         3.394625         0.250546         1.434391
 C         2.035385        -0.553148         1.408423
 C         1.313934         0.280727         0.376777
 C        -0.146014         0.050191        -0.078574
 O         1.450702         1.603923         0.973359
 C         2.814809         1.662911         1.187929
 C         3.377518         0.833295         0.039090
 O         2.283738         0.247110        -0.732848
 H         4.302636        -0.207111         3.274852
 H         5.060712        -1.070435         1.958744
 H         5.293563         0.737495         2.197315
 H         2.232964        -1.549722         1.049284
 H         1.492748        -0.648438         2.407638
 H        -0.243881        -0.318856        -1.110917
 H        -0.567237        -0.672780         0.601966
 H        -0.658269         1.006940        -0.018587
 H         3.334737         2.572030         1.497558
 H         4.325833         0.994769        -0.575028
