19
Iteration:  2612
 C         4.292706         0.841944         2.586330
 C         3.220414         0.544210         1.597424
 C         1.746994         0.493315         1.862149
 C         1.289353         0.414622         0.412454
 C        -0.097377         0.306637         0.044798
 O         1.884881         1.591392        -0.189582
 C         3.307090         1.113030         0.154256
 C         3.440283        -0.339911         0.355753
 O         2.074479        -0.738159         0.041315
 H         4.031907         1.813408         2.981591
 H         4.311556         0.088785         3.357308
 H         5.218801         0.984960         2.042563
 H         1.433563        -0.309285         2.583792
 H         1.473820         1.508976         2.236227
 H        -0.709464         0.137581         0.966064
 H        -0.353302         1.198291        -0.471010
 H        -0.367830        -0.589495        -0.597190
 H         3.982746         1.945735        -0.101650
 H         4.154688        -0.948514        -0.213949
