19
Iteration:  2550
 C         4.307310         0.594244         2.592142
 C         3.209064         0.667536         1.621632
 C         1.719609         0.632593         1.830371
 C         1.336312         0.444107         0.367667
 C        -0.123582         0.330599         0.092422
 O         1.861980         1.442427        -0.326738
 C         3.271657         1.304722         0.137023
 C         3.360806        -0.259779         0.425560
 O         2.151626        -0.825135         0.092746
 H         4.143996         1.447745         3.309456
 H         4.652279        -0.316975         3.240077
 H         5.250949         0.992974         2.166133
 H         1.453745        -0.223872         2.499230
 H         1.295882         1.559767         2.274348
 H        -0.485702        -0.252153         0.965444
 H        -0.604381         1.278736        -0.093633
 H        -0.181722        -0.434810        -0.734300
 H         3.879234         2.138808        -0.405495
 H         4.320624        -0.668162         0.283914
