19
Iteration:  3661
 C         4.478564         0.672144         2.613898
 C         3.081716         0.672596         1.787728
 C         1.603646         0.683129         1.847355
 C         1.367854         0.317991         0.270916
 C        -0.198351         0.160255         0.184461
 O         1.965702         1.497674        -0.290006
 C         3.287556         1.318992         0.183111
 C         3.403891        -0.224170         0.376895
 O         2.117145        -0.741000        -0.108129
 H         4.281061         1.429343         3.403521
 H         4.515293        -0.306092         3.122298
 H         5.435527         0.850850         2.067825
 H         1.354148        -0.243369         2.411502
 H         0.838568         1.475088         1.991233
 H        -0.575857        -0.073059        -0.719244
 H        -0.471178        -0.596185         0.963986
 H        -0.564679         1.051926         0.513278
 H         4.207755         1.863994        -0.119177
 H         4.276065        -0.795376         0.121469
