19
Iteration:   629
 C         4.472698         0.006563         2.313446
 C         3.290359         0.318272         1.561441
 C         1.901803        -0.367312         1.685502
 C         1.290486         0.367740         0.379143
 C        -0.136627        -0.053610        -0.069748
 O         1.598334         1.777525         0.786921
 C         3.015960         1.725058         0.901001
 C         3.414348         0.529332        -0.038461
 O         2.259490         0.048832        -0.650492
 H         4.248104        -0.023749         3.322709
 H         4.809031        -1.049512         1.992382
 H         5.347618         0.694240         2.184722
 H         1.841777        -1.457428         1.566649
 H         1.367997         0.021390         2.564946
 H        -0.158737        -1.158063         0.168638
 H        -1.025212         0.367611         0.467574
 H        -0.091292        -0.011941        -1.173143
 H         3.538973         2.667896         1.010559
 H         4.319302         0.435736        -0.493853
