19
Iteration:  4236charge 0 multiplicity 1
 C         4.343611         0.893102         2.694839
 C         3.327382         0.557164         1.625264
 C         1.840543         0.371765         1.895622
 C         1.288410         0.415228         0.406354
 C        -0.169614         0.332155         0.016850
 O         1.825389         1.503231        -0.149605
 C         3.264851         1.223332         0.154777
 C         3.353822        -0.273548         0.251592
 O         2.081738        -0.782598        -0.040029
 H         4.132160         1.970741         3.047720
 H         4.339082         0.270402         3.643313
 H         5.378329         0.994982         2.235228
 H         1.593852        -0.592491         2.421447
 H         1.257606         1.212488         2.423729
 H        -0.205026        -0.154124        -1.012055
 H        -0.796163        -0.246898         0.695427
 H        -0.538243         1.388101         0.045172
 H         4.017430         1.976459        -0.250302
 H         4.236196        -0.616418        -0.192190
