19
Iteration:  4506
 C         4.333018         0.762291         2.537017
 C         3.232648         0.550036         1.587304
 C         1.730392         0.524547         1.907203
 C         1.329262         0.410711         0.420309
 C        -0.115281         0.232351         0.169071
 O         1.906229         1.538547        -0.222849
 C         3.244963         1.337321         0.268896
 C         3.336487        -0.247331         0.300567
 O         2.146097        -0.791656        -0.110934
 H         4.075394         1.687461         3.099053
 H         4.318723         0.010672         3.374241
 H         5.360143         0.699586         2.131734
 H         1.354499        -0.364243         2.353746
 H         1.192333         1.240467         2.491658
 H        -0.295145         0.357371        -0.946047
 H        -0.251923        -0.794996         0.473845
 H        -0.887213         0.854386         0.606673
 H         3.840046         2.195004         0.139920
 H         4.280539        -0.703766        -0.107851
