19
Iteration:    30charge 0 multiplicity 1
 C         4.650768        -0.201285         2.112395
 C         3.332181         0.170123         1.466987
 C         2.176025        -0.680902         1.151259
 C         1.325947         0.349106         0.316406
 C        -0.160469        -0.069955         0.055867
 O         1.339626         1.600501         1.009016
 C         2.714147         1.608235         1.339056
 C         3.368656         1.005528         0.167072
 O         2.348372         0.540369        -0.733931
 H         4.554854        -0.131261         3.236676
 H         5.001072        -1.156976         1.791758
 H         5.547061         0.438258         1.796325
 H         2.340451        -1.607182         0.645457
 H         1.608008        -1.054006         2.073490
 H        -0.314435        -1.179384         0.305776
 H        -0.790562         0.598918         0.687698
 H        -0.348060         0.017226        -1.073468
 H         3.066540         2.624541         1.647415
 H         4.342886         1.057035        -0.231822
