19
Iteration:   312charge 0 multiplicity 1
 C         4.481162        -0.085577         2.181937
 C         3.289628         0.285592         1.420151
 C         2.062612        -0.529269         1.483567
 C         1.295567         0.284835         0.438637
 C        -0.059968        -0.064299        -0.100003
 O         1.515073         1.675005         0.935492
 C         2.916463         1.706254         1.149773
 C         3.389133         0.775866        -0.007494
 O         2.230988         0.280180        -0.651978
 H         4.130730        -0.293259         3.158705
 H         4.845215        -1.088520         1.760393
 H         5.320042         0.641803         2.220426
 H         2.092566        -1.614661         1.446693
 H         1.570334        -0.490697         2.528318
 H        -0.375263         0.734630        -0.789544
 H         0.162126        -0.965189        -0.684456
 H        -0.912723        -0.147590         0.594846
 H         3.291336         2.696742         1.525542
 H         4.350972         0.786894        -0.509302
