19
Iteration:  1601
 C         4.407684         0.333453         2.624163
 C         3.295898         0.542142         1.575677
 C         1.895701         0.176635         1.895700
 C         1.246872         0.397497         0.391059
 C        -0.197636         0.137127         0.012726
 O         1.717776         1.635485         0.094111
 C         3.145264         1.545926         0.426550
 C         3.453325         0.139418         0.098033
 O         2.202758        -0.528709        -0.282433
 H         4.500017         1.079710         3.489071
 H         4.197059        -0.621724         3.111343
 H         5.364913         0.316954         2.189279
 H         1.698071        -0.886755         1.955022
 H         1.325374         0.748837         2.622739
 H        -0.507134         0.318305        -1.017444
 H        -0.461583        -0.827184         0.285464
 H        -0.811936         0.866427         0.556275
 H         3.625401         2.462958         0.339473
 H         4.294827        -0.440417        -0.239691
