19
Iteration:  1848charge 0 multiplicity 1
 C         4.338166         0.625775         2.645231
 C         3.292859         0.444716         1.623544
 C         1.843971         0.246957         1.974350
 C         1.294346         0.385804         0.399558
 C        -0.201065         0.261774         0.098766
 O         1.801389         1.601611        -0.033927
 C         3.204295         1.369624         0.330653
 C         3.391341        -0.069717         0.158413
 O         2.168216        -0.593969        -0.309588
 H         3.940299         1.018298         3.501983
 H         4.932474        -0.228545         3.056689
 H         5.164587         1.294474         2.211850
 H         1.664662        -0.728604         2.414239
 H         1.392032         1.012970         2.614488
 H        -0.433772        -0.193441        -0.880996
 H        -0.821150        -0.299043         0.684882
 H        -0.512065         1.284540        -0.022942
 H         3.930973         2.200022         0.009461
 H         4.179402        -0.683384        -0.296638
