19
Iteration:  3092charge 0 multiplicity 1
 C         4.300637         0.847138         2.688789
 C         3.319473         0.584786         1.624804
 C         1.810670         0.442940         1.926160
 C         1.248686         0.419234         0.441739
 C        -0.168854         0.262313         0.012009
 O         1.953487         1.512532        -0.219915
 C         3.268068         1.218475         0.160272
 C         3.379408        -0.236645         0.290455
 O         2.011412        -0.766365        -0.039672
 H         4.102029         1.717188         3.358970
 H         4.474648        -0.022084         3.384942
 H         5.286605         1.000435         2.201256
 H         1.725513        -0.431518         2.542068
 H         1.539789         1.340281         2.456331
 H        -0.825387        -0.163817         0.773450
 H        -0.523484         1.302442        -0.215974
 H        -0.120611        -0.280635        -0.923323
 H         3.880619         2.020953        -0.301405
 H         4.041854        -0.912238        -0.287302
