19
Iteration:  3976
 C         4.374444         0.664956         2.673355
 C         3.189640         0.700252         1.619688
 C         1.680444         0.611409         1.865127
 C         1.364094         0.298135         0.349372
 C        -0.141122         0.205242         0.156178
 O         1.938502         1.508640        -0.332266
 C         3.227347         1.378674         0.261433
 C         3.359239        -0.256134         0.407628
 O         2.107849        -0.747473        -0.102047
 H         4.407939         1.544631         3.297250
 H         4.442552        -0.290206         3.178936
 H         5.203384         0.646812         1.941809
 H         1.493739        -0.284888         2.401590
 H         1.152528         1.473502         2.275003
 H        -0.381028         0.166903        -0.896416
 H        -0.319884        -0.885396         0.596455
 H        -0.559575         1.055833         0.797002
 H         3.868371         2.052755        -0.386742
 H         4.219940        -0.913159         0.310805
