19
Iteration:  1631charge 0 multiplicity 1
 C         4.302082         0.397181         2.617491
 C         3.236905         0.552337         1.575890
 C         1.865882         0.233913         1.917645
 C         1.322241         0.247541         0.444085
 C        -0.074123         0.183317         0.079721
 O         1.773620         1.686713         0.149505
 C         3.110311         1.465030         0.384292
 C         3.410726         0.080407         0.032236
 O         2.204209        -0.540323        -0.325616
 H         4.019398         1.055987         3.482588
 H         4.483835        -0.666282         2.782811
 H         5.228352         0.739347         2.238962
 H         1.664456        -0.789898         2.159807
 H         1.166809         0.809380         2.509887
 H        -0.292447         1.109719        -0.564965
 H        -0.417556        -0.655726        -0.543144
 H        -0.704114         0.249941         0.981383
 H         3.756495         2.269042         0.142317
 H         4.281199        -0.392976        -0.419039
