19
Iteration:  2079
 C         4.335396         0.608063         2.623887
 C         3.216793         0.551082         1.585096
 C         1.777030         0.583064         1.885172
 C         1.324740         0.408612         0.453343
 C        -0.097363         0.056298         0.115208
 O         1.935806         1.635950        -0.100195
 C         3.319422         1.310076         0.201422
 C         3.292718        -0.186467         0.257596
 O         2.037961        -0.661387        -0.168416
 H         4.059946         1.355828         3.383567
 H         4.321501        -0.392140         3.250838
 H         5.302613         0.743790         2.143263
 H         1.456512        -0.077169         2.710848
 H         1.445774         1.584282         2.250562
 H        -0.061087        -0.840006        -0.501359
 H        -0.713209        -0.037153         1.070502
 H        -0.484144         0.677602        -0.708126
 H         3.916347         2.182733        -0.031586
 H         4.069662        -0.779438        -0.168078
