19
Iteration:  1409
 C         4.498298         0.320620         2.645478
 C         3.375358         0.435766         1.596942
 C         1.840506        -0.041669         1.921036
 C         1.260974         0.333918         0.466860
 C        -0.148146         0.226599        -0.012464
 O         1.617026         1.728692         0.202725
 C         3.082612         1.604034         0.499088
 C         3.464462         0.172415         0.062216
 O         2.214360        -0.483469        -0.467035
 H         4.267648         1.016159         3.376408
 H         4.203256        -0.644662         3.135354
 H         5.458838         0.377737         1.997069
 H         1.863845        -1.069152         2.294435
 H         1.462660         0.597019         2.717407
 H        -0.716538         1.161325        -0.146255
 H        -0.264535        -0.329411        -0.976776
 H        -0.964399        -0.337247         0.642183
 H         3.547097         2.621303         0.314586
 H         4.269419         0.054112        -0.706635
