19
Iteration:  1107charge 0 multiplicity 1
 C         4.431557         0.134445         2.484992
 C         3.387008         0.416584         1.503354
 C         1.826587        -0.135883         1.918427
 C         1.370958         0.267195         0.491636
 C        -0.085135         0.136011        -0.003080
 O         1.560348         1.734170         0.376034
 C         2.992068         1.662914         0.633370
 C         3.429998         0.391937        -0.037654
 O         2.233164        -0.265195        -0.491599
 H         4.204852         0.522503         3.517549
 H         4.568817        -0.892180         2.651759
 H         5.337819         0.462906         2.126295
 H         1.971566        -1.264299         1.961744
 H         1.377943         0.289931         2.841055
 H        -0.155298        -0.538692        -0.881865
 H        -0.844941        -0.212802         0.714986
 H        -0.411935         1.166291        -0.347300
 H         3.638821         2.549543         0.568534
 H         4.291335        -0.060929        -0.624520
