19
Iteration:  1045
 C         4.388813         0.362305         2.516130
 C         3.261717         0.232884         1.506608
 C         1.932166        -0.247478         1.733363
 C         1.275346         0.387934         0.410371
 C        -0.115017         0.100583         0.061046
 O         1.633885         1.743397         0.496084
 C         3.099047         1.519440         0.801826
 C         3.459108         0.310636        -0.056373
 O         2.205102        -0.124455        -0.620711
 H         4.087730         0.988309         3.407374
 H         4.534975        -0.733905         2.841651
 H         5.406438         0.809341         2.178234
 H         1.600103        -1.289362         1.768240
 H         1.582554         0.289684         2.605122
 H        -0.452217        -0.513883         0.868753
 H        -0.772620         0.962837        -0.049820
 H        -0.145004        -0.560393        -0.805442
 H         3.835338         2.329776         0.802250
 H         4.197826        -0.175186        -0.728911
