19
Iteration:   974
 C         4.524172         0.040847         2.391942
 C         3.262844         0.378186         1.563189
 C         1.818301        -0.197262         1.721178
 C         1.295681         0.346206         0.361801
 C        -0.198156         0.034843         0.037703
 O         1.599479         1.730036         0.466821
 C         3.010241         1.643038         0.776979
 C         3.478438         0.487355         0.063724
 O         2.331690        -0.166966        -0.515098
 H         4.522493         0.350435         3.567352
 H         4.829750        -0.991829         2.234474
 H         5.271420         0.728749         2.040169
 H         1.660852        -1.276238         1.909273
 H         1.298313         0.442639         2.562479
 H        -0.744108         1.037959        -0.017504
 H        -0.341963        -0.469751        -0.947232
 H        -0.652979        -0.515541         0.885033
 H         3.451309         2.560396         0.471270
 H         4.423498         0.329986        -0.357072
