19
Iteration:  2810
 C         4.290102         0.914224         2.563620
 C         3.236403         0.556318         1.591674
 C         1.684667         0.579428         1.956479
 C         1.308999         0.454632         0.475241
 C        -0.043914         0.245918         0.043671
 O         1.948392         1.524598        -0.218019
 C         3.330365         1.077849         0.134280
 C         3.381370        -0.341561         0.312660
 O         2.047675        -0.699884        -0.002503
 H         3.920639         1.893286         2.846166
 H         3.996765         0.221077         3.405392
 H         5.323982         0.743476         2.260231
 H         1.434707        -0.326557         2.548287
 H         1.287131         1.557376         2.348427
 H        -0.082502        -0.791552        -0.277462
 H        -0.749172         0.324992         0.956820
 H        -0.456506         0.929932        -0.690694
 H         4.108436         1.677295        -0.211084
 H         3.947027        -1.292240        -0.023496
