19
Iteration:   474charge 0 multiplicity 1
 C         4.547303        -0.124708         2.278406
 C         3.318233         0.351962         1.495175
 C         2.053558        -0.399424         1.674764
 C         1.303121         0.264752         0.396522
 C        -0.075546         0.001911        -0.026627
 O         1.429196         1.728965         0.700526
 C         2.860299         1.710516         1.054160
 C         3.416432         0.633011         0.039222
 O         2.269880         0.188697        -0.694900
 H         4.311852        -0.222360         3.330496
 H         4.803009        -1.233399         1.896807
 H         5.518345         0.366860         2.244862
 H         2.156063        -1.411708         1.299223
 H         1.540936        -0.591046         2.639289
 H        -0.148164        -0.300784        -1.089757
 H        -0.656406        -0.692268         0.610573
 H        -0.637758         0.971817        -0.098247
 H         3.402783         2.608772         1.271976
 H         4.348942         0.589889        -0.554272
