19
Iteration:  1655
 C         4.420072         0.507788         2.636483
 C         3.298823         0.399696         1.540150
 C         1.810862         0.138659         1.859392
 C         1.225700         0.440499         0.412512
 C        -0.242903         0.116846         0.082190
 O         1.846850         1.726154         0.097113
 C         3.176384         1.484370         0.449630
 C         3.437563        -0.073408         0.175157
 O         2.179964        -0.470637        -0.368889
 H         3.842918         1.085160         3.430949
 H         4.903931        -0.411371         2.874468
 H         5.189985         1.141414         2.347575
 H         1.475690        -0.832868         2.216444
 H         1.339240         0.874174         2.527874
 H        -0.838310         0.984582        -0.267719
 H        -0.238475        -0.484116        -0.784471
 H        -0.754423        -0.449030         0.910746
 H         3.799166         2.312186         0.181559
 H         4.255442        -0.492679        -0.389425
