19
Iteration:  3938
 C         4.226752         0.858335         2.656014
 C         3.335074         0.490364         1.535286
 C         1.873780         0.487200         1.926146
 C         1.248985         0.449325         0.456615
 C        -0.084340         0.205881        -0.026165
 O         1.874370         1.553715        -0.168296
 C         3.263098         1.351664         0.230566
 C         3.407733        -0.307200         0.209328
 O         2.012224        -0.797073         0.017066
 H         4.203980         1.958646         2.899231
 H         4.074560         0.407722         3.673335
 H         5.289541         0.789729         2.390724
 H         1.646605        -0.353258         2.664428
 H         1.634979         1.403147         2.508262
 H        -0.133067         0.530408        -1.097217
 H        -0.395094        -0.764945         0.107406
 H        -0.880644         0.726463         0.462461
 H         4.036125         1.904550        -0.235122
 H         4.001103        -1.165892        -0.240353
