19
Iteration:  1795
 C         4.358898         0.531795         2.573493
 C         3.297676         0.481305         1.574001
 C         1.779013         0.263858         1.936399
 C         1.253658         0.401559         0.450885
 C        -0.156095         0.191462         0.084672
 O         1.834981         1.649214        -0.017155
 C         3.105957         1.428167         0.409553
 C         3.429999        -0.086163         0.174495
 O         2.189022        -0.549967        -0.319421
 H         4.329229         1.337219         3.329967
 H         4.399173        -0.440089         3.074457
 H         5.360427         0.591850         2.234184
 H         1.686232        -0.629748         2.509151
 H         1.421235         1.069489         2.561053
 H        -0.297674        -0.935700        -0.034916
 H        -0.917706         0.497403         0.773337
 H        -0.452805         0.561772        -0.932544
 H         3.828472         2.302611         0.275060
 H         4.347123        -0.500646        -0.284934
