19
Iteration:  3902charge 0 multiplicity 1
 C         4.306200         0.928218         2.581469
 C         3.217081         0.639017         1.583905
 C         1.722868         0.367184         1.918866
 C         1.311118         0.352415         0.450371
 C        -0.273730         0.338511        -0.008569
 O         1.886108         1.493616        -0.103621
 C         3.393823         1.231939         0.223722
 C         3.424061        -0.306392         0.330532
 O         2.147399        -0.774001        -0.099714
 H         4.230505         1.985786         2.727182
 H         4.337884         0.372627         3.518576
 H         5.224113         0.703835         2.019583
 H         1.552326        -0.561336         2.457628
 H         1.431699         1.279880         2.455147
 H        -0.435987         0.476755        -1.020783
 H        -0.707800        -0.590820         0.274500
 H        -0.703320         1.134451         0.596920
 H         3.967909         1.993783        -0.366312
 H         4.270454        -0.953229         0.195464
