19
Iteration:  1801
 C         4.365357         0.540224         2.577736
 C         3.255163         0.490934         1.526017
 C         1.783638         0.247270         1.976413
 C         1.259703         0.386770         0.477906
 C        -0.171419         0.216138         0.054356
 O         1.801730         1.664750        -0.019078
 C         3.158931         1.410028         0.359782
 C         3.451102        -0.066246         0.189324
 O         2.217013        -0.581612        -0.292777
 H         4.120073         1.249191         3.410644
 H         4.401341        -0.440086         3.112309
 H         5.422559         0.628007         2.119497
 H         1.556766        -0.809823         2.351460
 H         1.407937         1.013936         2.702334
 H        -0.490677        -0.794189        -0.093048
 H        -0.883610         0.400709         0.914625
 H        -0.376514         0.810049        -0.820842
 H         3.804602         2.206826         0.120565
 H         4.427106        -0.311264        -0.205118
