19
Iteration:  1013
 C         4.385584         0.198789         2.564561
 C         3.330023         0.399158         1.565537
 C         1.962425        -0.248719         1.703732
 C         1.292426         0.287691         0.436618
 C        -0.100914         0.123407         0.028101
 O         1.632387         1.713708         0.551700
 C         3.051134         1.657294         0.632947
 C         3.390065         0.399593        -0.067023
 O         2.186121        -0.188710        -0.560124
 H         4.049920         0.380909         3.530763
 H         4.553763        -0.907092         2.702804
 H         5.349877         0.695264         2.249338
 H         1.901645        -1.333150         1.740452
 H         1.570786         0.118163         2.636799
 H        -0.811975         0.459089         0.755985
 H        -0.266926         0.640470        -0.919616
 H        -0.298913        -0.935110        -0.118617
 H         3.722988         2.520064         0.426522
 H         4.315051         0.161580        -0.668636
