19
Iteration:  2653
 C         4.377410         0.865491         2.695055
 C         3.247859         0.613120         1.623535
 C         1.730504         0.476998         1.902359
 C         1.316746         0.303868         0.370983
 C        -0.161102         0.405944         0.064955
 O         1.897884         1.430927        -0.306194
 C         3.180578         1.231526         0.157935
 C         3.402375        -0.280874         0.399526
 O         2.108288        -0.734694        -0.036351
 H         4.787367         1.909043         2.977355
 H         4.384368         0.369520         3.672845
 H         5.330044         0.415373         2.258985
 H         1.577638        -0.472052         2.425148
 H         1.155153         1.244276         2.397609
 H        -0.767508         0.109202         0.974079
 H        -0.605256         1.358564        -0.297316
 H        -0.485698        -0.348255        -0.714714
 H         4.037136         1.768517        -0.220181
 H         4.272458        -0.918013        -0.003520
