19
Iteration:  2478charge 0 multiplicity 1
 C         4.282007         0.933266         2.584464
 C         3.277726         0.431102         1.627834
 C         1.748157         0.506657         1.901578
 C         1.317139         0.420186         0.490230
 C        -0.180275         0.267643         0.040456
 O         2.002484         1.489961        -0.264892
 C         3.364419         1.225381         0.180881
 C         3.364703        -0.281461         0.288066
 O         1.977214        -0.752607         0.034277
 H         4.322513         2.042800         2.665451
 H         4.270394         0.648640         3.574424
 H         5.326326         0.703043         2.354797
 H         1.294660        -0.322587         2.426046
 H         1.391272         1.430885         2.371768
 H        -0.361945        -0.769768        -0.158407
 H        -0.975304         0.782335         0.681790
 H        -0.213671         0.672593        -0.950596
 H         4.207744         1.995361         0.060393
 H         3.896529        -1.049759        -0.130489
