19
Iteration:  3230
 C         4.354866         0.836298         2.617260
 C         3.219402         0.493185         1.691677
 C         1.628550         0.575987         1.895063
 C         1.321132         0.544772         0.425470
 C        -0.115525         0.185615         0.132830
 O         1.916686         1.466753        -0.310557
 C         3.331698         1.218423         0.228688
 C         3.348501        -0.289687         0.361117
 O         2.144434        -0.711896        -0.157430
 H         4.374799         1.927871         2.893397
 H         4.242758         0.260119         3.536830
 H         5.201323         0.532568         2.016505
 H         1.234600        -0.378216         2.368902
 H         1.447019         1.555458         2.467478
 H        -0.218193        -0.634921        -0.588974
 H        -0.574166        -0.085023         1.159235
 H        -0.721651         0.981552        -0.178087
 H         3.897450         2.076846        -0.106018
 H         3.998018        -1.117189         0.250681
