19
Iteration:  2723charge 0 multiplicity 1
 C         4.379607         0.743048         2.682619
 C         3.249263         0.680272         1.663516
 C         1.735973         0.652824         1.799969
 C         1.268071         0.436556         0.413065
 C        -0.231355         0.230076         0.055714
 O         1.971072         1.506454        -0.321202
 C         3.277329         1.234449         0.119649
 C         3.378881        -0.295758         0.365289
 O         2.103569        -0.813957         0.067949
 H         4.338063         1.520705         3.447895
 H         4.432422        -0.227623         3.252374
 H         5.348349         0.874925         2.197256
 H         1.369059        -0.228127         2.391701
 H         1.281225         1.556384         2.281755
 H        -0.386945        -0.859622         0.304913
 H        -0.914993         0.758646         0.789361
 H        -0.429615         0.463466        -1.030087
 H         3.918861         2.015925        -0.322086
 H         4.078598        -1.158439         0.104563
