19
Iteration:  1207
 C         4.439566         0.337740         2.644339
 C         3.325866         0.363219         1.555892
 C         1.912510        -0.139280         1.735672
 C         1.341730         0.229350         0.449917
 C        -0.192385         0.229126         0.030327
 O         1.606244         1.706623         0.429044
 C         3.062507         1.575178         0.537182
 C         3.459827         0.260021        -0.015430
 O         2.203933        -0.314700        -0.522089
 H         4.214110         0.966499         3.580072
 H         4.545529        -0.643572         3.024407
 H         5.365569         0.696239         2.280581
 H         2.093141        -1.254941         1.825050
 H         1.430384         0.267789         2.665280
 H        -0.564587         1.088737         0.619370
 H        -0.369041         0.379031        -1.081135
 H        -0.877555        -0.619081         0.261159
 H         3.623586         2.491342         0.287042
 H         4.294082         0.085980        -0.657776
