19
Iteration:  1102
 C         4.446908         0.127197         2.491305
 C         3.333113         0.457703         1.543506
 C         1.879231        -0.130111         1.858305
 C         1.333661         0.272411         0.486249
 C        -0.119256         0.169943        -0.009822
 O         1.589243         1.700295         0.380945
 C         2.972791         1.652384         0.664279
 C         3.451809         0.354565        -0.003816
 O         2.227763        -0.279055        -0.513686
 H         4.229139         0.664456         3.399526
 H         4.676435        -0.987946         2.748484
 H         5.507570         0.514912         2.112445
 H         1.983136        -1.180174         1.817282
 H         1.458175         0.280353         2.769046
 H        -0.198557        -0.659192        -0.735578
 H        -0.819705        -0.083978         0.797389
 H        -0.350355         1.119313        -0.443790
 H         3.518156         2.588691         0.579250
 H         4.254890         0.155466        -0.707434
