19
Iteration:  3645charge 0 multiplicity 1
 C         4.346693         0.702927         2.610951
 C         3.217241         0.683452         1.595759
 C         1.656095         0.586681         1.838422
 C         1.290162         0.343254         0.376617
 C        -0.138653         0.167104         0.143762
 O         1.962374         1.562717        -0.238466
 C         3.258191         1.243648         0.234310
 C         3.341035        -0.234794         0.437788
 O         2.148847        -0.740136        -0.111599
 H         4.416043         1.485425         3.388646
 H         4.622586        -0.282712         3.010898
 H         5.254221         0.999287         2.055644
 H         1.239730        -0.149293         2.552622
 H         1.390206         1.605240         2.101339
 H        -0.446001        -0.348953        -0.849574
 H        -0.600632        -0.544007         0.836034
 H        -0.629109         1.212861         0.161496
 H         4.034963         1.849087        -0.208589
 H         4.209102        -0.921110         0.263950
