19
Iteration:  4623charge 0 multiplicity 1
 C         4.349163         0.648419         2.641236
 C         3.250408         0.548677         1.557094
 C         1.778760         0.537932         1.882839
 C         1.297781         0.371753         0.492480
 C        -0.121279         0.133551         0.119816
 O         1.820441         1.556730        -0.239359
 C         3.235943         1.405939         0.191223
 C         3.413441        -0.143629         0.226341
 O         2.133781        -0.711309        -0.025467
 H         4.275493         1.468570         3.356861
 H         4.237754        -0.243832         3.264166
 H         5.347734         0.609853         2.227042
 H         1.367919        -0.372746         2.418028
 H         1.356684         1.413600         2.417586
 H        -0.253560        -0.235835        -0.910344
 H        -0.749078        -0.494846         0.804223
 H        -0.660173         1.087783         0.077974
 H         4.035605         2.071047        -0.185300
 H         4.243017        -0.883877        -0.002477
