19
Iteration:  3270
 C         4.285316         0.843407         2.666719
 C         3.265563         0.684211         1.512157
 C         1.808020         0.550615         1.934217
 C         1.238343         0.254607         0.451554
 C        -0.189229         0.371501        -0.032993
 O         1.900102         1.466559        -0.138811
 C         3.315419         1.215980         0.072752
 C         3.385011        -0.264016         0.316622
 O         2.110899        -0.835695         0.026329
 H         3.992810         1.681581         3.326347
 H         4.369271        -0.088174         3.327580
 H         5.338461         1.066198         2.339892
 H         1.722443        -0.314624         2.581902
 H         1.290294         1.365217         2.416298
 H        -0.185896         0.285274        -1.142244
 H        -0.798349        -0.421458         0.374752
 H        -0.575487         1.361462         0.251402
 H         4.012515         1.942494        -0.421943
 H         4.275278        -0.883570         0.259632
