19
Iteration:  1487charge 0 multiplicity 1
 C         4.392012         0.353158         2.613511
 C         3.268680         0.423324         1.561022
 C         1.766668         0.095386         1.849409
 C         1.308048         0.307068         0.416700
 C        -0.185804         0.145264         0.065799
 O         1.744339         1.747854         0.190075
 C         3.160529         1.559562         0.502858
 C         3.425882         0.112961         0.019530
 O         2.258545        -0.475680        -0.389064
 H         4.097539         0.915915         3.500035
 H         4.811405        -0.677888         2.772936
 H         5.104106         1.047782         2.108034
 H         1.684256        -0.952370         2.186041
 H         1.287920         0.728932         2.593631
 H        -0.752294        -0.299545         0.899696
 H        -0.686838         1.200414         0.089584
 H        -0.454508        -0.465941        -0.843214
 H         3.794437         2.402649         0.452818
 H         4.355621        -0.225662        -0.357347
