19
Iteration:    67
 C         4.563190        -0.178801         2.254759
 C         3.401257         0.176103         1.385698
 C         2.146170        -0.631792         1.357455
 C         1.336531         0.250587         0.412867
 C        -0.011341        -0.037453        -0.124208
 O         1.438898         1.530754         1.132908
 C         2.835938         1.598534         1.249772
 C         3.244490         1.069807        -0.056486
 O         2.169115         0.514929        -0.756288
 H         4.278955        -0.221970         3.296489
 H         4.892651        -1.187111         2.006835
 H         5.376782         0.489468         2.156018
 H         2.273123        -1.673552         1.008047
 H         1.659017        -0.545442         2.286438
 H         0.236555        -0.470026        -1.081308
 H        -0.705636        -0.707731         0.403225
 H        -0.520624         0.897676        -0.307331
 H         3.271209         2.499309         1.625842
 H         4.216812         1.249437        -0.587297
