19
Iteration:  4290charge 0 multiplicity 1
 C         4.415279         0.679149         2.653422
 C         3.212768         0.640860         1.672447
 C         1.679852         0.590149         1.882638
 C         1.311387         0.355251         0.333280
 C        -0.187558         0.110150         0.154586
 O         1.906177         1.552818        -0.253728
 C         3.271430         1.270083         0.141632
 C         3.372742        -0.168558         0.366621
 O         2.136366        -0.707931        -0.083923
 H         4.628699         1.685821         2.996280
 H         4.240629        -0.073289         3.424926
 H         5.355660         0.334551         2.194820
 H         1.100636        -0.274697         2.311495
 H         1.327984         1.487468         2.527220
 H        -0.353169         0.205725        -0.968448
 H        -0.445705        -0.841811         0.575752
 H        -0.717274         0.963545         0.652387
 H         4.014165         2.014885        -0.296582
 H         4.176836        -0.769428         0.090589
