19
Iteration:  1566
 C         4.360679         0.459280         2.501856
 C         3.207871         0.367081         1.604025
 C         1.748677         0.156678         1.882110
 C         1.378972         0.371275         0.384515
 C        -0.124137         0.038052         0.080326
 O         1.805120         1.744503         0.233709
 C         3.156529         1.461373         0.423551
 C         3.403617         0.008399         0.101865
 O         2.178213        -0.349343        -0.424976
 H         4.237418         1.424899         3.139033
 H         4.501194        -0.357493         3.200393
 H         5.281988         0.544684         2.040349
 H         1.463942        -0.830047         2.214736
 H         1.394075         0.888665         2.612473
 H        -0.118476        -0.695570        -0.760608
 H        -0.615194        -0.337388         0.984505
 H        -0.546705         0.984061        -0.107642
 H         3.765603         2.398880         0.457642
 H         4.233518        -0.694870         0.101498
