19
Iteration:  3826
 C         4.201592         0.654286         2.683550
 C         3.309432         0.681032         1.452525
 C         1.843036         0.619979         1.843561
 C         1.353281         0.325925         0.513776
 C        -0.052459         0.079419        -0.026536
 O         1.857007         1.653307        -0.102475
 C         3.290584         1.385089         0.070649
 C         3.293516        -0.220320         0.274923
 O         2.061339        -0.803745         0.118206
 H         3.694390         1.136138         3.511518
 H         4.102512        -0.445906         2.831595
 H         5.255121         1.008041         2.595523
 H         1.868355        -0.149740         2.616322
 H         1.555716         1.621611         2.258937
 H         0.047345        -0.353067        -0.916440
 H        -0.495966        -0.575380         0.660862
 H        -0.664077         0.923593        -0.187814
 H         4.004133         1.814878        -0.668901
 H         3.989060        -0.897509        -0.129305
