19
Iteration:  1410
 C         4.492776         0.309822         2.641389
 C         3.378933         0.432343         1.602399
 C         1.846944        -0.025249         1.915142
 C         1.266519         0.338861         0.459035
 C        -0.145535         0.223489        -0.005680
 O         1.609224         1.727788         0.207330
 C         3.085199         1.615609         0.501862
 C         3.458190         0.168600         0.058685
 O         2.216055        -0.490805        -0.464144
 H         4.259874         1.050104         3.407949
 H         4.196604        -0.651891         3.148124
 H         5.422173         0.389910         1.978408
 H         1.865807        -1.057357         2.290686
 H         1.485081         0.593195         2.729690
 H        -0.717022         1.149385        -0.147501
 H        -0.257605        -0.298098        -1.032814
 H        -0.939561        -0.381515         0.628806
 H         3.554585         2.595179         0.308803
 H         4.247482         0.048548        -0.708005
