19
Iteration:  2642
 C         4.413989         0.865513         2.649629
 C         3.238202         0.718487         1.652380
 C         1.746281         0.412058         1.883329
 C         1.265511         0.363214         0.417732
 C        -0.209142         0.386261         0.073094
 O         1.918622         1.380332        -0.310981
 C         3.309517         1.225561         0.228677
 C         3.420611        -0.233996         0.401808
 O         2.033155        -0.806506        -0.103738
 H         4.419343         2.000300         2.857329
 H         4.121772         0.279625         3.533477
 H         5.363863         0.492339         2.162692
 H         1.625646        -0.509847         2.448528
 H         1.276965         1.244313         2.397703
 H        -0.850548         0.287361         0.986036
 H        -0.225273         1.430591        -0.335397
 H        -0.377940        -0.368288        -0.725896
 H         3.890760         2.104360         0.052938
 H         4.224978        -1.023707         0.138637
