19
Iteration:  4986
 C         4.342141         0.700899         2.624577
 C         3.244736         0.698160         1.590728
 C         1.756196         0.468350         1.934789
 C         1.240556         0.287992         0.439571
 C        -0.209533         0.338725         0.017145
 O         1.882108         1.434587        -0.284300
 C         3.194171         1.336176         0.082122
 C         3.444333        -0.126571         0.394277
 O         2.175454        -0.853240         0.038514
 H         4.348550         1.589850         3.263145
 H         4.571043        -0.227747         3.165163
 H         5.184709         0.875281         1.929765
 H         1.581594        -0.446334         2.651135
 H         1.450018         1.457966         2.461209
 H        -0.385969         0.497959        -1.004167
 H        -0.844743        -0.398713         0.602474
 H        -0.354490         1.330451         0.416589
 H         3.924267         2.087202        -0.143242
 H         4.369369        -0.550647         0.154980
