19
Iteration:   789charge 0 multiplicity 1
 C         4.560208        -0.067105         2.374446
 C         3.317879         0.351207         1.538949
 C         1.924596        -0.252121         1.727818
 C         1.269612         0.333477         0.396119
 C        -0.113863         0.048692        -0.050902
 O         1.501669         1.738759         0.598571
 C         2.967678         1.770068         0.767638
 C         3.406343         0.556434         0.026218
 O         2.313174        -0.148934        -0.537812
 H         4.335968         0.049054         3.521083
 H         4.771738        -1.114338         2.219348
 H         5.383423         0.575359         2.217731
 H         2.025976        -1.316008         1.552296
 H         1.224358        -0.035370         2.588330
 H        -0.792270         0.466917         0.721514
 H        -0.247808         0.741422        -0.886966
 H        -0.383337        -0.995632        -0.116236
 H         3.155109         2.862158         0.825572
 H         4.412546         0.449901        -0.401864
