19
Iteration:  2344
 C         4.384964         0.803520         2.639562
 C         3.275792         0.639289         1.595259
 C         1.724917         0.472665         1.935670
 C         1.311107         0.364736         0.382843
 C        -0.195519         0.363505         0.065099
 O         1.884742         1.421785        -0.312018
 C         3.270411         1.306357         0.200197
 C         3.354721        -0.278562         0.365804
 O         2.122782        -0.770682        -0.014771
 H         4.313250         1.766276         3.195108
 H         4.245934        -0.019490         3.285654
 H         5.361747         0.697587         2.139931
 H         1.598662        -0.465122         2.483087
 H         1.204281         1.211793         2.533467
 H        -0.804732         0.199937         0.999233
 H        -0.420408         1.388280        -0.171773
 H        -0.556334        -0.339199        -0.741075
 H         4.042044         1.893394        -0.260187
 H         4.298224        -0.841523         0.113197
