19
Iteration:  3007charge 0 multiplicity 1
 C         4.286415         0.758297         2.581796
 C         3.200722         0.628848         1.559539
 C         1.746732         0.598566         1.865760
 C         1.246908         0.410775         0.388077
 C        -0.148180         0.089041         0.078728
 O         2.016413         1.644904        -0.133103
 C         3.338354         1.179437         0.229021
 C         3.358125        -0.256568         0.252699
 O         2.069582        -0.728259        -0.002915
 H         4.309254         1.767348         2.963146
 H         4.038021         0.008020         3.387128
 H         5.242705         0.523290         2.104111
 H         1.547306        -0.203016         2.566671
 H         1.289975         1.480009         2.282159
 H        -0.689129        -0.074483         0.993453
 H        -0.560430         0.915415        -0.469834
 H        -0.107148        -0.801837        -0.511601
 H         4.104001         1.934142        -0.161212
 H         4.022131        -1.136706         0.121000
