19
Iteration:  4378charge 0 multiplicity 1
 C         4.327241         0.869547         2.573787
 C         3.198149         0.526725         1.641295
 C         1.756184         0.466281         1.974343
 C         1.261827         0.475293         0.356241
 C        -0.145017         0.224643         0.101480
 O         1.959628         1.523584        -0.180750
 C         3.303238         1.219597         0.278257
 C         3.383516        -0.306703         0.176337
 O         2.082194        -0.681330        -0.101469
 H         3.977385         1.630414         3.246329
 H         4.833297         0.101716         3.115117
 H         5.081589         1.484578         2.085868
 H         1.326096        -0.405228         2.584222
 H         1.452538         1.471717         2.507153
 H        -0.438636        -0.146006        -0.965246
 H        -0.212092        -0.749531         0.549102
 H        -1.022222         0.616635         0.640042
 H         4.100206         1.911667         0.211040
 H         4.131656        -1.121146        -0.119085
