19
Iteration:  1707charge 0 multiplicity 1
 C         4.368916         0.515587         2.609874
 C         3.274398         0.482968         1.559012
 C         1.868832         0.170680         1.893348
 C         1.259587         0.317377         0.384638
 C        -0.230213         0.256978         0.008736
 O         1.702334         1.649533         0.137497
 C         3.176157         1.451501         0.374356
 C         3.479795         0.006827         0.151176
 O         2.223194        -0.586539        -0.294364
 H         4.111793         1.258964         3.414727
 H         4.504999        -0.524357         3.004047
 H         5.311772         0.716365         2.058287
 H         1.804795        -0.769806         2.415830
 H         1.468818         0.936542         2.560146
 H        -0.655805         0.874036         0.891898
 H        -0.388282         0.987563        -0.787793
 H        -0.606942        -0.744429        -0.235665
 H         3.819445         2.289942         0.222575
 H         4.366632        -0.475266        -0.242169
