19
Iteration:   567
 C         4.442708         0.111174         2.387050
 C         3.303965         0.309594         1.515283
 C         2.036706        -0.424597         1.452708
 C         1.365041         0.294898         0.315583
 C        -0.216548         0.138636         0.097400
 O         1.525268         1.683718         0.792615
 C         2.876645         1.633912         1.010946
 C         3.505006         0.530652         0.013703
 O         2.320583         0.016828        -0.722661
 H         4.351957         0.487812         3.484257
 H         4.737676        -0.911696         2.311341
 H         5.322470         0.660710         1.918055
 H         1.980087        -1.508949         1.143031
 H         1.544218        -0.338059         2.405396
 H        -0.804262         0.531698         0.920144
 H        -0.418256         0.539190        -0.882712
 H        -0.589680        -0.866872        -0.030254
 H         3.218050         2.592778         1.374451
 H         4.276835         0.483637        -0.696448
