19
Iteration:  4193
 C         4.337240         0.746645         2.509257
 C         3.139228         0.602788         1.663334
 C         1.637876         0.501396         1.845488
 C         1.331376         0.389419         0.364857
 C        -0.126955         0.304589         0.168476
 O         1.906636         1.469001        -0.267527
 C         3.222735         1.259171         0.200868
 C         3.392876        -0.185615         0.386605
 O         2.229663        -0.783654        -0.023220
 H         4.219869         1.508401         3.371094
 H         4.665347        -0.284508         2.851793
 H         5.196793         1.194563         1.901263
 H         1.323305        -0.406698         2.367359
 H         1.261989         1.340092         2.469710
 H        -0.324193         0.110425        -0.921419
 H        -0.530262        -0.453716         0.840740
 H        -0.532984         1.280294         0.529120
 H         3.993067         2.030230         0.058102
 H         4.253737        -0.737758         0.079520
