19
Iteration:  1607charge 0 multiplicity 1
 C         4.389698         0.346250         2.643773
 C         3.310057         0.518705         1.569422
 C         1.883456         0.131267         1.891421
 C         1.245540         0.367255         0.435214
 C        -0.160170         0.192713         0.006874
 O         1.673440         1.634985         0.077414
 C         3.152601         1.584534         0.361477
 C         3.465750         0.140086         0.148368
 O         2.199868        -0.531224        -0.284285
 H         4.338605         1.113066         3.387325
 H         4.187551        -0.726387         2.885747
 H         5.448276         0.222328         2.197609
 H         1.671720        -0.922597         2.209969
 H         1.417354         0.814082         2.636946
 H        -0.439317         0.492570        -1.047926
 H        -0.472713        -0.922990         0.170627
 H        -0.791021         0.727560         0.744110
 H         3.758193         2.540273         0.207220
 H         4.381467        -0.375541        -0.194628
