19
Iteration:  2148charge 0 multiplicity 1
 C         4.358790         0.819347         2.627276
 C         3.262301         0.540231         1.578488
 C         1.765405         0.342821         1.941045
 C         1.293586         0.337873         0.421404
 C        -0.223408         0.394218         0.030707
 O         1.858783         1.539438        -0.120989
 C         3.230245         1.233518         0.166730
 C         3.415857        -0.235938         0.280526
 O         2.182544        -0.765055        -0.092722
 H         4.336494         1.933099         2.862773
 H         4.244823         0.213416         3.522246
 H         5.316162         0.586422         2.118936
 H         1.367674        -0.443066         2.537346
 H         1.368787         1.246922         2.332480
 H        -0.398127         1.079813        -0.788301
 H        -0.703199        -0.530102         0.015563
 H        -0.723029         0.978071         0.798796
 H         3.893825         2.090951         0.122575
 H         4.324079        -0.767239        -0.093214
