19
Iteration:   114
 C         4.551591        -0.062527         2.170208
 C         3.275449         0.187120         1.470607
 C         2.047258        -0.692018         1.327456
 C         1.344817         0.276276         0.362101
 C        -0.014687         0.069942        -0.036705
 O         1.476753         1.552475         1.045189
 C         2.816200         1.677685         1.258691
 C         3.328361         0.858528         0.057282
 O         2.260609         0.395015        -0.786135
 H         4.423672        -0.261203         3.211173
 H         5.263679        -0.866962         1.719540
 H         5.036185         0.903010         2.127701
 H         2.408232        -1.599039         0.767326
 H         1.405429        -0.854030         2.242784
 H        -0.410017         1.028719        -0.390921
 H        -0.115487        -0.691613        -0.784287
 H        -0.578783        -0.280715         0.821275
 H         3.232924         2.573638         1.785956
 H         4.252735         1.126344        -0.373912
