19
Iteration:  3607charge 0 multiplicity 1
 C         4.334655         0.893311         2.747812
 C         3.307663         0.578812         1.577276
 C         1.857709         0.440859         1.936487
 C         1.307123         0.384917         0.521056
 C        -0.083882         0.278023        -0.097023
 O         1.853350         1.532696        -0.164016
 C         3.209044         1.251079         0.053655
 C         3.327905        -0.265810         0.196678
 O         2.030214        -0.785809         0.091769
 H         4.101745         1.783429         3.324704
 H         4.198377         0.091196         3.479897
 H         5.331116         0.823279         2.302193
 H         1.482434        -0.448849         2.465281
 H         1.529781         1.315591         2.557090
 H         0.164788        -0.005511        -1.081735
 H        -0.799560        -0.410811         0.425075
 H        -0.502775         1.230464        -0.180083
 H         4.119586         1.701937        -0.436767
 H         4.030174        -0.794604        -0.358385
