19
Iteration:  4871
 C         4.383505         0.830811         2.639046
 C         3.311080         0.607552         1.540804
 C         1.762208         0.379080         1.876479
 C         1.261029         0.299392         0.471579
 C        -0.155081         0.447849         0.008054
 O         1.836518         1.377678        -0.189480
 C         3.140505         1.341368         0.231263
 C         3.379832        -0.154270         0.222056
 O         2.191217        -0.825215         0.034532
 H         4.375746         1.909186         2.973312
 H         4.107046         0.229140         3.550962
 H         5.443922         0.483988         2.450195
 H         1.872456        -0.586156         2.207991
 H         1.380978         1.105741         2.524872
 H        -0.350131         0.398904        -1.054654
 H        -0.899140        -0.163540         0.618516
 H        -0.473854         1.495240         0.097861
 H         3.828599         2.061799        -0.140895
 H         4.192370        -0.833126        -0.053783
