19
Iteration:  1210charge 0 multiplicity 1
 C         4.432165         0.330683         2.647862
 C         3.343973         0.373470         1.564780
 C         1.909485        -0.156854         1.748910
 C         1.329279         0.254925         0.457164
 C        -0.168220         0.217276         0.017068
 O         1.599856         1.687955         0.411134
 C         3.074446         1.556169         0.547920
 C         3.427165         0.274230        -0.016967
 O         2.199477        -0.287099        -0.510532
 H         4.201638         1.046367         3.402864
 H         4.511888        -0.699493         3.012900
 H         5.408620         0.777549         2.292782
 H         2.031410        -1.218514         1.862876
 H         1.504131         0.218395         2.678253
 H        -0.561665         0.981470         0.700567
 H        -0.343152         0.456365        -1.020412
 H        -0.816487        -0.601387         0.148457
 H         3.697436         2.434963         0.190454
 H         4.309364        -0.014473        -0.707457
