19
Iteration:  3704charge 0 multiplicity 1
 C         4.230378         0.793679         2.719001
 C         3.338946         0.680689         1.515125
 C         1.791757         0.584662         1.944774
 C         1.301037         0.338126         0.487299
 C        -0.078420         0.217740        -0.035688
 O         1.885760         1.534042        -0.129116
 C         3.288453         1.247657         0.064844
 C         3.342562        -0.271245         0.225972
 O         2.048698        -0.801967         0.036735
 H         4.111952         1.771930         3.237709
 H         4.093206        -0.064861         3.399126
 H         5.225659         0.720595         2.222325
 H         1.544421        -0.346043         2.516337
 H         1.527263         1.448136         2.590151
 H         0.025834         0.461150        -1.030175
 H        -0.483139        -0.768822         0.148629
 H        -0.677442         0.895420         0.464444
 H         3.875673         2.011103        -0.458914
 H         4.146598        -0.966258        -0.098637
