19
Iteration:   873
 C         4.381510         0.255014         2.500007
 C         3.271524         0.249835         1.485791
 C         1.933754        -0.445764         1.602956
 C         1.344449         0.266456         0.430877
 C        -0.162155         0.203933         0.157454
 O         1.601857         1.728232         0.525058
 C         2.992971         1.629773         0.789987
 C         3.493837         0.500124        -0.030382
 O         2.289397        -0.102326        -0.642601
 H         4.229858         0.726466         3.503189
 H         4.588679        -0.821658         2.776569
 H         5.346145         0.580160         1.989956
 H         1.883343        -1.532405         1.572099
 H         1.331477        -0.082681         2.472311
 H        -0.347114        -0.805798        -0.212021
 H        -0.787535         0.188153         1.083236
 H        -0.554302         0.972381        -0.544342
 H         3.413136         2.645831         1.023634
 H         4.481468         0.208841        -0.457294
