19
Iteration:  4113charge 0 multiplicity 1
 C         4.357229         0.740080         2.638421
 C         3.267969         0.654160         1.630164
 C         1.724958         0.483982         1.877532
 C         1.287793         0.291559         0.392547
 C        -0.270464         0.250516         0.101266
 O         1.945277         1.483975        -0.305059
 C         3.207343         1.307506         0.220770
 C         3.464324        -0.174213         0.280750
 O         2.132277        -0.734590         0.021410
 H         4.466637         1.775227         3.091417
 H         4.216846         0.111594         3.567409
 H         5.292662         0.493001         2.105660
 H         1.508270        -0.440469         2.514945
 H         1.389572         1.442145         2.378990
 H        -0.424979         0.506915        -0.954165
 H        -0.701464        -0.780950         0.259979
 H        -0.798181         1.016064         0.682994
 H         3.938511         1.994598        -0.263345
 H         4.322730        -0.781106         0.020172
