19
Iteration:  3433
 C         4.343142         0.895143         2.540334
 C         3.229198         0.470007         1.661700
 C         1.677975         0.491404         1.816032
 C         1.295899         0.408683         0.362357
 C        -0.184435         0.282994         0.086616
 O         1.989891         1.618202        -0.231162
 C         3.305317         1.261519         0.308458
 C         3.383018        -0.380783         0.368842
 O         2.103345        -0.822490        -0.046997
 H         4.043719         1.915095         2.823058
 H         4.613357         0.411611         3.494081
 H         5.267895         0.916002         1.948884
 H         1.101180        -0.209487         2.393427
 H         1.329971         1.446626         2.166782
 H        -0.578351        -0.440433        -0.709520
 H        -0.463212        -0.354336         1.046686
 H        -0.787389         1.197227         0.097793
 H         3.953793         2.075278        -0.021339
 H         4.350088        -0.870912         0.042659
