19
Iteration:  4551
 C         4.365516         0.792399         2.691771
 C         3.299691         0.663742         1.535282
 C         1.857219         0.443790         1.932940
 C         1.249057         0.407868         0.518876
 C        -0.124097         0.336543         0.011296
 O         1.812867         1.457197        -0.196526
 C         3.175974         1.327346         0.222845
 C         3.382712        -0.256742         0.223770
 O         2.110731        -0.858452        -0.083797
 H         3.869102         1.295886         3.552300
 H         4.859921        -0.099655         3.139324
 H         5.198168         1.423598         2.316465
 H         1.785880        -0.415362         2.562289
 H         1.508726         1.202983         2.628303
 H        -0.137925         0.849695        -1.011654
 H        -0.647417        -0.572137         0.022669
 H        -0.876495         0.977449         0.478786
 H         3.869396         1.985753        -0.344547
 H         4.236046        -0.842730         0.062993
