19
Iteration:    49
 C         4.521066        -0.169700         2.128578
 C         3.306613         0.255469         1.416256
 C         2.071986        -0.652616         1.289896
 C         1.368449         0.290214         0.339254
 C        -0.034085        -0.072838        -0.031114
 O         1.359684         1.497665         1.159061
 C         2.786312         1.683793         1.239725
 C         3.455278         0.927393         0.020494
 O         2.302601         0.562480        -0.737639
 H         4.377625        -0.108543         3.216718
 H         4.830348        -1.262690         1.802111
 H         5.396475         0.436024         1.843035
 H         2.333743        -1.659962         0.818691
 H         1.511724        -0.905484         2.225238
 H        -0.174357        -1.052102        -0.491434
 H        -0.474339        -0.065254         0.968499
 H        -0.540489         0.663710        -0.660586
 H         3.093149         2.526862         1.910897
 H         4.247467         1.352389        -0.622582
