19
Iteration:  4441charge 0 multiplicity 1
 C         4.310648         0.627531         2.657720
 C         3.262066         0.582046         1.548370
 C         1.829454         0.493811         1.932693
 C         1.314052         0.394475         0.556695
 C        -0.169564         0.243082         0.042529
 O         1.785509         1.483230        -0.229378
 C         3.172356         1.368216         0.166161
 C         3.402027        -0.138510         0.224015
 O         2.194125        -0.719037         0.006386
 H         4.383784         1.728237         2.817166
 H         3.999915         0.212677         3.641821
 H         5.310029         0.322481         2.326482
 H         1.736759        -0.510734         2.344021
 H         1.482598         1.385734         2.539750
 H        -0.049734        -0.245470        -1.028813
 H        -0.701168        -0.484401         0.625412
 H        -0.485760         1.308292        -0.135442
 H         3.925427         1.986014        -0.226780
 H         4.187311        -0.804154        -0.304297
