19
Iteration:  1403
 C         4.514149         0.357228         2.619790
 C         3.329091         0.460800         1.551326
 C         1.828515        -0.106225         1.933257
 C         1.241037         0.303774         0.496635
 C        -0.200609         0.233914        -0.027641
 O         1.680392         1.710972         0.196011
 C         3.057553         1.545676         0.486519
 C         3.482720         0.194605         0.062500
 O         2.210776        -0.417697        -0.458310
 H         4.369898         1.172387         3.475161
 H         4.403713        -0.641342         3.051561
 H         5.539638         0.320535         2.332625
 H         1.789532        -1.176370         2.219282
 H         1.320446         0.597321         2.630788
 H        -0.555382         1.257408        -0.209751
 H        -0.246947        -0.561962        -0.815683
 H        -0.871526        -0.058830         0.732132
 H         3.513730         2.490407         0.396724
 H         4.364316         0.022626        -0.520515
