19
Iteration:  1749charge 0 multiplicity 1
 C         4.297802         0.451283         2.565542
 C         3.243445         0.563700         1.570255
 C         1.885249         0.207011         1.900845
 C         1.293779         0.404363         0.401142
 C        -0.179514         0.092880         0.054486
 O         1.799720         1.725355         0.067994
 C         3.217661         1.481455         0.373976
 C         3.423463        -0.053848         0.158704
 O         2.162973        -0.512661        -0.257666
 H         4.528882         1.331259         3.098178
 H         4.156518        -0.401983         3.253684
 H         5.318633         0.147872         2.153735
 H         1.630469        -0.777427         2.293786
 H         1.460097         0.980044         2.544678
 H        -0.699600        -0.453025         0.891648
 H        -0.919707         0.846723        -0.163360
 H        -0.256504        -0.612418        -0.746128
 H         3.815134         2.354145         0.186617
 H         4.299109        -0.585630        -0.212296
