19
Iteration:  1120charge 0 multiplicity 1
 C         4.427410         0.139395         2.475310
 C         3.246783         0.381434         1.485838
 C         1.915236        -0.128543         1.847637
 C         1.251785         0.321549         0.489664
 C        -0.075611         0.035960        -0.017731
 O         1.636556         1.777817         0.451094
 C         3.068643         1.671811         0.552354
 C         3.418564         0.325440        -0.030499
 O         2.236310        -0.236199        -0.434132
 H         4.150658         0.485408         3.508220
 H         4.515822        -0.924709         2.437872
 H         5.385392         0.569481         2.296945
 H         1.668915        -1.153787         2.224381
 H         1.430327         0.597570         2.526571
 H         0.051575        -0.285374        -1.037614
 H        -0.585041        -0.707905         0.625994
 H        -0.586381         1.007424         0.007021
 H         3.527417         2.627856         0.567468
 H         4.355041         0.156527        -0.486421
