19
Iteration:  3965charge 0 multiplicity 1
 C         4.312504         0.718141         2.631391
 C         3.201334         0.722962         1.627204
 C         1.722796         0.533393         1.872291
 C         1.277121         0.354939         0.380222
 C        -0.139238         0.147426         0.104555
 O         1.924291         1.538070        -0.204144
 C         3.327385         1.245843         0.134094
 C         3.391352        -0.205654         0.364426
 O         2.104853        -0.719815        -0.079922
 H         4.422463         1.604735         3.259251
 H         4.249054        -0.127058         3.325614
 H         5.308795         0.666560         2.141109
 H         1.512175        -0.217258         2.600454
 H         1.232377         1.462337         2.178765
 H        -0.432540         0.375386        -0.910820
 H        -0.568673        -0.888306         0.464176
 H        -0.735734         0.933487         0.690866
 H         4.224650         1.838345        -0.210544
 H         4.121780        -0.968976         0.196723
