19
Iteration:  1071charge 0 multiplicity 1
 C         4.490060         0.261397         2.472196
 C         3.204303         0.361027         1.567163
 C         1.821350        -0.238712         1.743999
 C         1.283321         0.275396         0.388762
 C        -0.182388         0.132069         0.057007
 O         1.635925         1.789158         0.487889
 C         3.053181         1.607550         0.698506
 C         3.526472         0.287600         0.019224
 O         2.277355        -0.208653        -0.582348
 H         4.288615         0.995062         3.200042
 H         4.734898        -0.701227         2.932218
 H         5.396670         0.711330         2.063980
 H         1.781202        -1.298782         1.590553
 H         1.294987         0.036306         2.671069
 H        -0.470856        -0.911053         0.328706
 H        -0.657464         0.802129         0.788680
 H        -0.433500         0.394428        -0.973538
 H         3.640463         2.522111         0.674328
 H         4.370598        -0.071572        -0.556296
