19
Iteration:  2602
 C         4.334633         0.869085         2.631131
 C         3.291309         0.489150         1.595947
 C         1.786375         0.588743         1.868835
 C         1.328363         0.456109         0.455082
 C        -0.122024         0.210927         0.048055
 O         1.885006         1.548127        -0.206497
 C         3.293013         1.171744         0.176396
 C         3.342545        -0.368890         0.306616
 O         2.020065        -0.725095        -0.022259
 H         4.083023         1.588098         3.344380
 H         4.508817         0.040662         3.337021
 H         5.351457         1.054042         2.391302
 H         1.085226        -0.131739         2.368859
 H         1.598810         1.615178         2.272154
 H        -0.898406         0.163545         0.830413
 H        -0.484186         1.039997        -0.479855
 H        -0.103447        -0.629504        -0.726392
 H         4.001868         1.964601        -0.199386
 H         4.242637        -0.907673         0.101890
