19
Iteration:  3409
 C         4.297822         0.919793         2.634080
 C         3.244995         0.636789         1.577931
 C         1.811075         0.449545         1.952341
 C         1.292257         0.361332         0.499152
 C        -0.156184         0.306927         0.024893
 O         1.914531         1.469222        -0.198982
 C         3.306417         1.188670         0.202867
 C         3.358334        -0.352852         0.239530
 O         2.062471        -0.716677        -0.043494
 H         4.284262         2.006585         2.890429
 H         4.101244         0.397494         3.557712
 H         5.333511         0.656048         2.375543
 H         1.538832        -0.444550         2.538783
 H         1.427615         1.303400         2.514543
 H        -0.035923        -0.163679        -0.999091
 H        -0.943779        -0.265222         0.525308
 H        -0.494776         1.354420        -0.221371
 H         4.005213         1.850765        -0.242291
 H         4.213438        -0.891391        -0.062076
