19
Iteration:  4428charge 0 multiplicity 1
 C         4.334471         0.731351         2.650944
 C         3.310061         0.614089         1.561453
 C         1.773404         0.423089         1.985501
 C         1.202828         0.384248         0.492230
 C        -0.176253         0.321321         0.049928
 O         1.849499         1.427523        -0.207676
 C         3.205701         1.330676         0.129494
 C         3.444603        -0.102959         0.205154
 O         2.185621        -0.809887        -0.023018
 H         4.503145         1.724349         3.152273
 H         4.040418        -0.071937         3.404921
 H         5.344827         0.386270         2.333800
 H         1.498069        -0.466106         2.488078
 H         1.414680         1.217809         2.597634
 H        -0.138660        -0.065342        -0.942511
 H        -0.985903        -0.172762         0.587904
 H        -0.658494         1.284491         0.109658
 H         3.768227         2.231345        -0.247401
 H         4.434586        -0.406052        -0.125524
