19
Iteration:  3308
 C         4.330865         0.755843         2.620595
 C         3.253711         0.616565         1.591106
 C         1.758908         0.623692         1.896241
 C         1.303672         0.436206         0.406142
 C        -0.259347         0.160109         0.009548
 O         2.017221         1.493163        -0.263665
 C         3.326819         1.255138         0.176284
 C         3.367960        -0.228393         0.315992
 O         2.035963        -0.784955         0.075756
 H         3.902325         1.563810         3.301159
 H         4.633977        -0.139850         3.160310
 H         5.221315         1.265165         2.231170
 H         1.576719        -0.249557         2.598190
 H         1.385061         1.609131         2.326512
 H        -0.570023         0.426401        -0.994686
 H        -0.486139        -0.922987         0.131684
 H        -0.919977         0.778253         0.669748
 H         4.187739         1.895434        -0.194384
 H         4.148843        -1.016485         0.150611
