19
Iteration:  1335
 C         4.403534         0.336069         2.636629
 C         3.328887         0.438396         1.516736
 C         1.915789        -0.033256         1.834398
 C         1.302843         0.301604         0.447881
 C        -0.168946         0.118338         0.060219
 O         1.742048         1.708256         0.261732
 C         3.092451         1.591023         0.588065
 C         3.433355         0.105545         0.053960
 O         2.100321        -0.301922        -0.526465
 H         3.806757         0.750683         3.525834
 H         4.701509        -0.744864         2.791624
 H         5.342623         0.897542         2.378421
 H         1.803865        -1.098731         2.119757
 H         1.584446         0.653626         2.618074
 H        -0.278991        -0.309837        -0.938206
 H        -0.683584        -0.531249         0.816625
 H        -0.768032         1.024091        -0.182960
 H         3.823000         2.438834         0.479614
 H         4.409604         0.121008        -0.462530
