19
Iteration:  3342charge 0 multiplicity 1
 C         4.331910         0.676914         2.569174
 C         3.178965         0.659717         1.691200
 C         1.702414         0.673933         1.884267
 C         1.341804         0.418044         0.325450
 C        -0.060347         0.111833         0.146358
 O         1.988923         1.508463        -0.324500
 C         3.283094         1.235490         0.256318
 C         3.288858        -0.248740         0.447756
 O         2.063954        -0.726216        -0.105701
 H         4.216889         1.679829         3.066897
 H         4.563281        -0.048327         3.322867
 H         5.216388         0.833904         1.955158
 H         1.208886        -0.061457         2.586496
 H         1.191008         1.650529         2.095338
 H        -0.513660         0.397175        -0.818686
 H        -0.245167        -0.908689         0.413373
 H        -0.527253         0.784435         0.960335
 H         4.074469         1.825204        -0.355422
 H         4.089228        -1.022620         0.370130
