19
Iteration:  2792
 C         4.277508         0.940316         2.663771
 C         3.316403         0.536978         1.542088
 C         1.863989         0.541033         1.907866
 C         1.275080         0.418335         0.440901
 C        -0.239517         0.223209        -0.014763
 O         2.070196         1.548803        -0.235966
 C         3.298125         1.219273         0.189253
 C         3.299488        -0.356416         0.339597
 O         1.954692        -0.799476         0.040464
 H         4.034586         1.947185         3.040742
 H         4.495551         0.209595         3.428196
 H         5.165182         1.093106         2.013566
 H         1.507708        -0.332925         2.486846
 H         1.514011         1.452085         2.433086
 H        -0.318638        -0.760315        -0.476477
 H        -0.996190         0.336351         0.804254
 H        -0.277645         0.953987        -0.801223
 H         4.176698         1.820031        -0.117561
 H         4.126605        -1.013387         0.060210
