19
Iteration:  1538charge 0 multiplicity 1
 C         4.405303         0.532781         2.631668
 C         3.318711         0.383077         1.593177
 C         1.843311         0.007074         1.852955
 C         1.325341         0.379150         0.423228
 C        -0.238743         0.188420         0.042916
 O         1.782098         1.727696         0.175478
 C         3.129078         1.488833         0.481859
 C         3.394994         0.092975         0.047536
 O         2.159128        -0.530980        -0.388467
 H         4.074386         1.279806         3.344984
 H         4.574598        -0.495026         3.029469
 H         5.467803         0.824003         2.260004
 H         1.521762        -1.023040         2.148365
 H         1.540741         0.692199         2.672213
 H        -0.319182        -0.844096        -0.353055
 H        -0.970643         0.363703         0.820365
 H        -0.367746         0.967673        -0.781177
 H         3.818282         2.257565         0.348821
 H         4.380128        -0.051417        -0.395938
