19
Iteration:   515charge 0 multiplicity 1
 C         4.473064        -0.011770         2.338868
 C         3.356923         0.297273         1.441116
 C         2.008418        -0.397164         1.587530
 C         1.333561         0.341507         0.405240
 C        -0.096069        -0.042654        -0.108484
 O         1.486350         1.774382         0.950436
 C         2.986862         1.649713         0.980518
 C         3.382088         0.585181        -0.073006
 O         2.229346         0.094700        -0.709769
 H         3.996796         0.262976         3.328716
 H         4.695657        -1.028658         2.267459
 H         5.357810         0.532385         2.272374
 H         2.135326        -1.478893         1.435359
 H         1.508084        -0.073480         2.492952
 H        -0.483959         0.747437        -0.784900
 H        -0.082787        -0.999860        -0.614969
 H        -0.767951        -0.008833         0.766336
 H         3.446003         2.574813         1.310533
 H         4.315236         0.518895        -0.604243
