19
Iteration:  3841charge 0 multiplicity 1
 C         4.238380         0.625603         2.649303
 C         3.362829         0.732761         1.460487
 C         1.845564         0.636794         1.890421
 C         1.229419         0.350984         0.451598
 C        -0.192427         0.044061         0.013956
 O         1.898070         1.638687        -0.165944
 C         3.236867         1.361218         0.129013
 C         3.437118        -0.333169         0.381769
 O         2.088061        -0.729290         0.018632
 H         3.919838         1.255148         3.521078
 H         4.403042        -0.377893         3.107697
 H         5.249974         1.033009         2.493623
 H         1.518266        -0.171609         2.591234
 H         1.431511         1.540148         2.338102
 H        -0.089710        -0.356168        -1.108327
 H        -0.792018        -0.621502         0.679185
 H        -0.749435         1.047800        -0.010282
 H         3.983511         1.893192        -0.456742
 H         4.373589        -0.832323         0.049351
