19
Iteration:  1329
 C         4.385885         0.311879         2.621495
 C         3.328706         0.472004         1.515457
 C         1.933303        -0.027671         1.874168
 C         1.308258         0.295842         0.427238
 C        -0.165666         0.150631         0.052863
 O         1.714612         1.747672         0.288549
 C         3.067661         1.565206         0.562655
 C         3.415666         0.148608         0.039127
 O         2.166043        -0.349135        -0.522665
 H         3.973507         0.656030         3.568023
 H         4.582120        -0.731725         2.705565
 H         5.339413         0.810621         2.600023
 H         1.832081        -1.101415         2.073796
 H         1.498251         0.594397         2.693891
 H        -0.130895        -0.539178        -0.832684
 H        -0.721158        -0.383037         0.829912
 H        -0.689643         1.059939        -0.187347
 H         3.648446         2.430104         0.397988
 H         4.207701        -0.171307        -0.654073
