19
Iteration:   201
 C         4.516492        -0.092859         2.349465
 C         3.409580         0.225140         1.312171
 C         2.107008        -0.623198         1.453683
 C         1.286494         0.290880         0.476225
 C        -0.153005        -0.016388        -0.100641
 O         1.442225         1.585044         1.070320
 C         2.887024         1.628383         1.091371
 C         3.377040         0.901976        -0.093943
 O         2.264059         0.414163        -0.740257
 H         4.193390        -0.053841         3.349422
 H         4.649671        -1.201340         2.248573
 H         5.415604         0.409938         2.249373
 H         2.192416        -1.651895         1.083516
 H         1.727301        -0.492010         2.486858
 H        -0.535358        -0.976940         0.265782
 H        -0.918074         0.723727         0.025232
 H         0.122970        -0.138822        -1.133919
 H         3.250089         2.565486         1.420295
 H         4.340981         1.085703        -0.550133
