19
Iteration:  3781charge 0 multiplicity 1
 C         4.417966         0.766283         2.600676
 C         3.197371         0.684033         1.668463
 C         1.717032         0.484062         1.852652
 C         1.330791         0.312874         0.293268
 C        -0.223525         0.236776         0.107840
 O         1.955997         1.486150        -0.249695
 C         3.203793         1.295720         0.272411
 C         3.374374        -0.188930         0.427986
 O         2.135835        -0.768053        -0.112898
 H         4.289667         1.713599         3.126569
 H         4.547258        -0.094137         3.259108
 H         5.269174         0.941205         1.913664
 H         1.452626        -0.418245         2.397063
 H         1.123942         1.367921         2.190555
 H        -0.612403         0.146356        -0.838520
 H        -0.595259        -0.548916         0.771259
 H        -0.566284         1.143958         0.479606
 H         4.005872         1.924238        -0.041070
 H         4.323791        -0.785918         0.423637
