19
Iteration:  4093charge 0 multiplicity 1
 C         4.420911         0.852092         2.570802
 C         3.173436         0.653647         1.691080
 C         1.659678         0.444366         1.919985
 C         1.330100         0.341960         0.400598
 C        -0.175313         0.325013         0.145358
 O         1.901345         1.409740        -0.271558
 C         3.278976         1.267225         0.219927
 C         3.319425        -0.252220         0.439421
 O         2.191225        -0.746517        -0.255528
 H         4.482316         1.904870         3.018968
 H         4.223510         0.268974         3.516432
 H         5.302194         0.559688         1.941693
 H         1.525599        -0.529925         2.473191
 H         1.068538         1.250361         2.455380
 H        -0.427776         0.386152        -0.894772
 H        -0.621752        -0.593156         0.693114
 H        -0.464049         1.197791         0.742731
 H         3.963416         2.084563         0.010046
 H         4.300862        -0.759934         0.383411
