19
Iteration:   798
 C         4.534364        -0.060682         2.399662
 C         3.323088         0.380024         1.538071
 C         1.947984        -0.219947         1.688206
 C         1.303888         0.368937         0.406258
 C        -0.097896         0.063244        -0.048191
 O         1.467278         1.778150         0.627250
 C         2.892127         1.718509         0.835225
 C         3.417483         0.507671        -0.048508
 O         2.316429        -0.173993        -0.519534
 H         4.330729        -0.057823         3.512189
 H         4.813444        -1.024363         2.106525
 H         5.436896         0.457126         2.215370
 H         1.959127        -1.291809         1.808642
 H         1.584403         0.249090         2.640769
 H        -0.863035         0.089529         0.702601
 H        -0.378314         0.686287        -0.897420
 H        -0.106350        -0.902747        -0.572252
 H         3.441079         2.658359         0.693288
 H         4.298012         0.388507        -0.600300
