19
Iteration:  2455
 C         4.334343         0.882561         2.598667
 C         3.248420         0.666994         1.572132
 C         1.748835         0.531692         1.942552
 C         1.310972         0.353922         0.409261
 C        -0.203594         0.378642         0.020652
 O         1.924526         1.484770        -0.207856
 C         3.247108         1.136372         0.207197
 C         3.381330        -0.362007         0.406260
 O         2.128368        -0.807902        -0.074588
 H         4.330865         1.961115         2.867109
 H         4.334870         0.386314         3.494303
 H         5.358977         0.777008         2.220068
 H         1.514216        -0.333952         2.531093
 H         1.196664         1.377611         2.315359
 H        -0.635925        -0.592665        -0.180899
 H        -0.662036         0.819048         0.925085
 H        -0.462688         1.017641        -0.833795
 H         4.061905         1.661125        -0.372980
 H         4.228432        -0.997252         0.237625
