19
Iteration:  3436
 C         4.354907         0.893212         2.529287
 C         3.186347         0.497667         1.648828
 C         1.664076         0.497170         1.801178
 C         1.318498         0.419016         0.342085
 C        -0.170061         0.272391         0.128225
 O         1.980136         1.618127        -0.232753
 C         3.298321         1.261724         0.326942
 C         3.377352        -0.410261         0.372525
 O         2.114783        -0.823100        -0.060398
 H         4.032133         1.853805         2.976173
 H         4.689079         0.432745         3.503482
 H         5.274078         0.886304         1.923898
 H         1.101365        -0.210549         2.399560
 H         1.333253         1.495660         2.151012
 H        -0.457596        -0.374891        -0.707183
 H        -0.531845        -0.348889         1.040927
 H        -0.781343         1.161731         0.094473
 H         4.053149         2.054738         0.001304
 H         4.338408        -0.876357         0.080471
