19
Iteration:  3746charge 0 multiplicity 1
 C         4.298207         0.952904         2.530634
 C         3.195271         0.444405         1.592688
 C         1.778403         0.394069         1.917393
 C         1.281910         0.414599         0.456092
 C        -0.139717         0.286033        -0.015340
 O         1.961786         1.492697        -0.168570
 C         3.249746         1.231471         0.255836
 C         3.412097        -0.266340         0.355239
 O         2.079218        -0.727139        -0.064934
 H         4.175836         2.047140         2.689168
 H         4.389568         0.598569         3.552895
 H         5.329933         0.835098         2.170094
 H         1.538538        -0.512067         2.509862
 H         1.390324         1.252693         2.459045
 H        -0.356717         0.580023        -1.056541
 H        -0.641230        -0.653807         0.251173
 H        -0.729866         1.016214         0.542239
 H         3.981119         1.981811        -0.063781
 H         4.275192        -0.916049         0.136723
