19
Iteration:  1427
 C         4.385719         0.275559         2.565676
 C         3.280830         0.475830         1.492063
 C         1.898885         0.101107         1.816379
 C         1.293216         0.336731         0.449080
 C        -0.113015         0.124532        -0.005425
 O         1.706204         1.715349         0.284715
 C         3.045110         1.532910         0.508512
 C         3.395546         0.179873         0.049539
 O         2.216325        -0.416218        -0.343926
 H         4.352207         1.040397         3.388975
 H         4.389554        -0.716610         3.019434
 H         5.399413         0.314260         2.195301
 H         1.758000        -0.968068         2.016987
 H         1.373900         0.785450         2.517311
 H        -0.710253         0.960808         0.426568
 H        -0.121340        -0.050986        -1.043531
 H        -0.562213        -0.728307         0.457749
 H         3.673466         2.444327         0.326721
 H         4.365331        -0.190236        -0.298827
