19
Iteration:  2100
 C         4.406034         0.646145         2.676124
 C         3.285398         0.518364         1.584006
 C         1.737418         0.514149         1.876773
 C         1.292525         0.398621         0.415718
 C        -0.256463         0.161422         0.067967
 O         1.868571         1.622802        -0.194309
 C         3.242819         1.293683         0.266436
 C         3.441783        -0.172902         0.234738
 O         2.136461        -0.649834        -0.067805
 H         4.420585         1.579472         3.172671
 H         4.158289        -0.188172         3.414544
 H         5.322393         0.376577         2.164012
 H         1.352594        -0.379019         2.441744
 H         1.470205         1.407342         2.507922
 H        -0.383532        -0.441978        -0.823242
 H        -0.572222        -0.313427         1.042236
 H        -0.892123         0.994465        -0.283171
 H         3.933299         1.896331        -0.317292
 H         4.237224        -0.830564        -0.022613
