19
Iteration:  3554
 C         4.412449         0.819879         2.593564
 C         3.109608         0.509892         1.645776
 C         1.622500         0.533846         1.803890
 C         1.320088         0.475614         0.353692
 C        -0.106558         0.230585         0.199360
 O         1.980042         1.524260        -0.348644
 C         3.227584         1.244975         0.275671
 C         3.408178        -0.269198         0.362278
 O         2.120206        -0.772927        -0.031316
 H         4.251958         1.861673         2.754165
 H         4.507145         0.417750         3.622609
 H         5.282570         0.645133         1.980767
 H         1.058542        -0.289563         2.221331
 H         1.291405         1.360811         2.431304
 H        -0.489078         0.279202        -0.839479
 H        -0.270794        -0.935260         0.484804
 H        -0.614055         1.058110         0.744070
 H         4.112309         1.858689         0.193844
 H         4.260240        -0.855150         0.233838
