19
Iteration:  1552
 C         4.364388         0.518012         2.557388
 C         3.253648         0.398544         1.527955
 C         1.795570         0.132394         1.871518
 C         1.218836         0.430529         0.469517
 C        -0.149495         0.140791         0.059126
 O         1.782511         1.693217         0.220830
 C         3.186582         1.452957         0.561735
 C         3.462925        -0.058847         0.095690
 O         2.214366        -0.428998        -0.465658
 H         4.205513         1.332819         3.231889
 H         4.479298        -0.375007         3.208573
 H         5.277566         0.753641         1.937109
 H         1.669685        -0.905157         2.211996
 H         1.288393         0.865531         2.499830
 H        -0.139552        -0.782419        -0.538275
 H        -0.770068        -0.135127         0.997633
 H        -0.703663         0.837993        -0.599866
 H         3.842136         2.329906         0.425565
 H         4.230124        -0.332031        -0.604230
