19
Iteration:  1488charge 0 multiplicity 1
 C         4.383121         0.353179         2.603786
 C         3.268102         0.424679         1.567671
 C         1.774200         0.095756         1.852836
 C         1.305245         0.305341         0.422838
 C        -0.190373         0.150115         0.062404
 O         1.747680         1.746945         0.192907
 C         3.154585         1.554511         0.498700
 C         3.421657         0.120225         0.018201
 O         2.263328        -0.483896        -0.395259
 H         4.083096         0.937435         3.521647
 H         4.818570        -0.660754         2.771842
 H         5.102833         1.035009         2.133082
 H         1.719382        -0.945933         2.190063
 H         1.287757         0.711882         2.607252
 H        -0.733538        -0.309487         0.908382
 H        -0.666224         1.214455         0.099008
 H        -0.427635        -0.422459        -0.852086
 H         3.804310         2.411262         0.435672
 H         4.356257        -0.236677        -0.330750
