19
Iteration:  4851charge 0 multiplicity 1
 C         4.343723         0.855439         2.668073
 C         3.294165         0.652632         1.586094
 C         1.866165         0.379985         2.019437
 C         1.320223         0.289438         0.428398
 C        -0.183404         0.327061         0.014139
 O         1.856303         1.519602        -0.158004
 C         3.211055         1.283503         0.176164
 C         3.410485        -0.190201         0.268951
 O         2.033927        -0.822628        -0.103016
 H         4.528724         1.923266         2.942927
 H         4.144555         0.262898         3.590134
 H         5.276596         0.429442         2.247009
 H         1.664487        -0.539302         2.586173
 H         1.331074         1.270897         2.392666
 H        -0.105020        -0.089757        -1.019548
 H        -0.937542        -0.214224         0.545161
 H        -0.511517         1.387265        -0.110969
 H         3.916496         1.992949        -0.138592
 H         4.215829        -0.781955        -0.226115
