19
Iteration:  3531charge 0 multiplicity 1
 C         4.320433         0.736879         2.650659
 C         3.257951         0.739219         1.595152
 C         1.734893         0.617672         1.865126
 C         1.275372         0.374055         0.359064
 C        -0.216965         0.116787         0.108763
 O         2.008661         1.524711        -0.251289
 C         3.296637         1.211167         0.199721
 C         3.365260        -0.274433         0.401265
 O         2.065568        -0.704823        -0.062612
 H         4.297674         1.675497         3.180880
 H         4.378305        -0.048942         3.386360
 H         5.210571         0.706633         2.029321
 H         1.597205        -0.105130         2.666324
 H         1.280124         1.537450         2.237690
 H        -0.459810         0.297360        -0.954685
 H        -0.382027        -1.002163         0.262907
 H        -0.854449         0.755902         0.698569
 H         4.137088         1.803407        -0.226623
 H         4.125076        -1.017871         0.147122
