19
Iteration:  2453
 C         4.330088         0.875048         2.587487
 C         3.260151         0.681184         1.579558
 C         1.732730         0.539111         1.931474
 C         1.331222         0.354611         0.413528
 C        -0.199686         0.385961         0.039940
 O         1.898663         1.487769        -0.218086
 C         3.256937         1.150985         0.218809
 C         3.367846        -0.366622         0.407504
 O         2.139703        -0.822963        -0.073598
 H         4.330104         1.927382         2.898812
 H         4.356144         0.345460         3.512709
 H         5.364556         0.795385         2.240721
 H         1.518544        -0.355818         2.508736
 H         1.171447         1.383532         2.304358
 H        -0.588558        -0.618721        -0.214060
 H        -0.647568         0.837601         0.874437
 H        -0.421797         1.040701        -0.850652
 H         4.042465         1.607342        -0.359728
 H         4.229054        -1.077944         0.177145
