19
Iteration:  3921
 C         4.339750         0.977800         2.690922
 C         3.325949         0.531406         1.583039
 C         1.827908         0.417301         1.943320
 C         1.298914         0.329174         0.483969
 C        -0.093392         0.305516        -0.033146
 O         1.893734         1.513087        -0.157371
 C         3.201568         1.175248         0.189279
 C         3.310784        -0.263267         0.216261
 O         2.025183        -0.758321        -0.043060
 H         4.265820         2.066733         2.833125
 H         4.057141         0.377885         3.534277
 H         5.415606         0.815908         2.506745
 H         1.586129        -0.504252         2.428027
 H         1.343837         1.270522         2.454185
 H         0.049042         0.710268        -1.055479
 H        -0.430148        -0.845393         0.053056
 H        -0.734749         1.112025         0.421798
 H         3.974962         1.924337        -0.079011
 H         4.147580        -0.718201        -0.205631
