19
Iteration:   421
 C         4.486930         0.052195         2.339202
 C         3.359197         0.184845         1.457359
 C         2.132170        -0.573274         1.528173
 C         1.300791         0.321705         0.390602
 C        -0.146255         0.063093        -0.084555
 O         1.520294         1.705871         0.860452
 C         2.917481         1.617391         1.116899
 C         3.382641         0.569580        -0.004681
 O         2.188415         0.266504        -0.719805
 H         4.104610         0.297546         3.302501
 H         5.104811        -0.942060         2.223632
 H         5.310956         0.807038         2.140767
 H         2.076846        -1.605802         1.257716
 H         1.637149        -0.204686         2.479088
 H        -0.567254        -0.885414         0.279180
 H        -0.877764         0.816774         0.282360
 H        -0.074967         0.050837        -1.201153
 H         3.459196         2.528117         1.309424
 H         4.199233         0.767783        -0.656491
