19
Iteration:  2656charge 0 multiplicity 1
 C         4.380810         0.863374         2.692271
 C         3.229032         0.582355         1.620029
 C         1.740359         0.497456         1.905533
 C         1.309556         0.299306         0.376620
 C        -0.155477         0.397725         0.063145
 O         1.909935         1.464983        -0.295787
 C         3.181526         1.233865         0.154633
 C         3.376710        -0.292556         0.374804
 O         2.141618        -0.737133        -0.010069
 H         4.744804         1.863744         2.905829
 H         4.273233         0.338107         3.672024
 H         5.299964         0.437585         2.280949
 H         1.453072        -0.488604         2.375722
 H         1.190092         1.319883         2.413790
 H        -0.738495        -0.003908         0.937421
 H        -0.571496         1.296171        -0.272128
 H        -0.560971        -0.365300        -0.708736
 H         4.026634         1.734219        -0.448072
 H         4.228109        -0.785916         0.056560
