19
Iteration:  2306
 C         4.298445         0.903809         2.523447
 C         3.268271         0.508839         1.533778
 C         1.747423         0.508496         1.947250
 C         1.260767         0.471409         0.446484
 C        -0.198371         0.261146         0.022560
 O         1.913340         1.507878        -0.108220
 C         3.347669         1.211578         0.266146
 C         3.388960        -0.329867         0.330791
 O         2.093523        -0.781371        -0.099171
 H         4.269524         1.967553         2.717944
 H         4.104562         0.458552         3.555040
 H         5.353079         0.669842         2.340772
 H         1.512275        -0.455348         2.463958
 H         1.662406         1.515294         2.434606
 H        -0.696680         0.416686         0.968944
 H        -0.372178         1.102575        -0.719547
 H        -0.512328        -0.592342        -0.571666
 H         4.048402         1.935742        -0.107160
 H         4.081727        -1.101738        -0.043334
