19
Iteration:  1597
 C         4.408344         0.329061         2.609703
 C         3.287086         0.562767         1.588853
 C         1.860232         0.196259         1.880228
 C         1.283328         0.394317         0.379033
 C        -0.223972         0.116025         0.032272
 O         1.761778         1.667375         0.098919
 C         3.114554         1.514342         0.474865
 C         3.426038         0.103154         0.068163
 O         2.212047        -0.515901        -0.289388
 H         4.523651         1.025382         3.447876
 H         4.249049        -0.536606         3.281138
 H         5.401606         0.379426         2.117286
 H         1.795709        -0.900228         1.928770
 H         1.307973         0.726223         2.668924
 H        -0.428193         0.197192        -1.101624
 H        -0.511064        -0.938802         0.419861
 H        -0.814804         0.922353         0.457166
 H         3.634816         2.512087         0.347978
 H         4.310660        -0.408863        -0.351510
