19
Iteration:  2020charge 0 multiplicity 1
 C         4.388704         0.671504         2.596359
 C         3.250153         0.589955         1.564785
 C         1.753951         0.345480         1.966556
 C         1.279802         0.277244         0.444694
 C        -0.176200         0.372985         0.078235
 O         1.855359         1.557662        -0.157597
 C         3.193327         1.338191         0.329015
 C         3.391033        -0.173275         0.238183
 O         2.186326        -0.713063        -0.158570
 H         3.966360         1.292662         3.318100
 H         4.585961        -0.219866         3.053721
 H         5.330596         1.135002         2.289381
 H         1.728242        -0.692664         2.337233
 H         1.255443         1.143732         2.532738
 H        -0.917102         0.054910         0.806926
 H        -0.451731         1.323895        -0.165420
 H        -0.304654        -0.043256        -0.898629
 H         3.783908         2.089421        -0.133644
 H         4.307017        -0.691129        -0.130297
