19
Iteration:  4575charge 0 multiplicity 1
 C         4.359923         0.782320         2.538331
 C         3.218183         0.507463         1.567397
 C         1.679709         0.479647         1.882846
 C         1.304957         0.368050         0.404661
 C        -0.140555         0.157246         0.120578
 O         1.974586         1.600747        -0.161173
 C         3.240492         1.272071         0.220316
 C         3.426030        -0.253978         0.287404
 O         2.084773        -0.670561        -0.031615
 H         3.796639         1.227179         3.344854
 H         4.965767         0.017883         3.012360
 H         5.048280         1.551619         2.174731
 H         1.453809        -0.312062         2.594049
 H         1.242434         1.380372         2.336602
 H        -0.414086         0.372452        -0.901896
 H        -0.565808        -0.800015         0.418294
 H        -0.833181         0.879091         0.615703
 H         4.101658         1.923408         0.005680
 H         4.113021        -0.903765        -0.209643
