19
Iteration:   268charge 0 multiplicity 1
 C         4.603485        -0.065034         2.258339
 C         3.402939         0.254699         1.434217
 C         2.037783        -0.550052         1.399905
 C         1.320343         0.281800         0.375707
 C        -0.143614         0.049232        -0.081838
 O         1.446446         1.607576         0.978568
 C         2.806326         1.660798         1.185260
 C         3.371910         0.832461         0.041487
 O         2.275678         0.243297        -0.732937
 H         4.300644        -0.238674         3.253707
 H         5.038558        -1.073650         1.991200
 H         5.310435         0.750167         2.217357
 H         2.215104        -1.558991         1.049978
 H         1.473542        -0.596259         2.429652
 H        -0.222493        -0.294515        -1.122223
 H        -0.564381        -0.699076         0.579214
 H        -0.655331         1.008591        -0.011038
 H         3.351850         2.575191         1.485106
 H         4.314523         0.964736        -0.574222
