19
Iteration:  1500charge 0 multiplicity 1
 C         4.316993         0.442682         2.523456
 C         3.220637         0.503002         1.570686
 C         1.911564         0.032874         1.895068
 C         1.274162         0.326095         0.447505
 C        -0.154743         0.248489         0.080211
 O         1.766981         1.671577         0.235578
 C         3.078106         1.493938         0.448525
 C         3.439133         0.138033         0.112474
 O         2.244827        -0.530980        -0.454196
 H         3.928179         0.714952         3.602432
 H         4.568314        -0.628119         2.785227
 H         5.265987         0.874120         2.366852
 H         1.843765        -1.027450         2.113604
 H         1.380452         0.661744         2.613461
 H        -0.680212        -0.582456         0.635469
 H        -0.544513         1.338404         0.100048
 H        -0.133217         0.054451        -0.972577
 H         3.706830         2.373559         0.169231
 H         4.362140        -0.261219        -0.284962
