19
Iteration:  4768charge 0 multiplicity 1
 C         4.256029         0.609124         2.615489
 C         3.293022         0.771253         1.560675
 C         1.854921         0.526034         1.901991
 C         1.304249         0.358142         0.489691
 C        -0.113465         0.262823         0.039635
 O         1.856350         1.466025        -0.214826
 C         3.134010         1.327859         0.124555
 C         3.380311        -0.153492         0.258501
 O         2.191964        -0.822995         0.049056
 H         3.936691         1.186445         3.484948
 H         4.393609        -0.442753         2.911349
 H         5.221236         1.050712         2.360127
 H         1.457834        -0.303316         2.511445
 H         1.307568         1.394151         2.368582
 H        -0.444115         0.624776        -1.000870
 H        -0.584554        -0.711356         0.164600
 H        -0.641533         1.036579         0.648467
 H         3.801852         2.040559        -0.206548
 H         4.392927        -0.615975         0.089103
