19
Iteration:  1457
 C         4.424425         0.288771         2.566391
 C         3.212367         0.435061         1.597786
 C         1.823291         0.143664         1.904426
 C         1.278913         0.446061         0.422376
 C        -0.112068         0.009640         0.095365
 O         1.770026         1.782366         0.165491
 C         3.152767         1.512111         0.531929
 C         3.348054         0.092669         0.101001
 O         2.213112        -0.369837        -0.501735
 H         4.219522         0.929220         3.528030
 H         4.680806        -0.722684         2.894759
 H         5.179083         0.733352         1.969513
 H         1.715981        -0.940002         2.052180
 H         1.286493         0.742376         2.664703
 H        -0.802329        -0.020805         0.940432
 H        -0.657616         0.500545        -0.776654
 H        -0.130106        -1.020867        -0.171023
 H         3.836330         2.332275         0.353101
 H         4.325414        -0.267842        -0.143478
