19
Iteration:  1420charge 0 multiplicity 1
 C         4.395064         0.270250         2.613949
 C         3.319388         0.438996         1.557023
 C         1.929543         0.094460         1.854998
 C         1.300247         0.358185         0.416775
 C        -0.160398         0.164404        -0.003130
 O         1.623239         1.703707         0.262521
 C         3.060484         1.607831         0.523897
 C         3.386639         0.165414         0.037369
 O         2.231954        -0.478800        -0.393768
 H         4.463557         1.052917         3.314316
 H         4.492365        -0.726140         3.119784
 H         5.459846         0.370261         2.180744
 H         1.776706        -0.977658         2.035516
 H         1.489114         0.687574         2.655474
 H        -0.608672         1.169747         0.080801
 H        -0.039197        -0.041658        -1.077413
 H        -0.599782        -0.707502         0.596902
 H         3.712794         2.465635         0.276126
 H         4.307841        -0.093762        -0.522309
