19
Iteration:   394charge 0 multiplicity 1
 C         4.527012        -0.006130         2.438290
 C         3.421257         0.253507         1.433182
 C         2.007285        -0.573858         1.466490
 C         1.291826         0.296988         0.516325
 C        -0.093834         0.072629        -0.088577
 O         1.507209         1.619095         1.019887
 C         2.900892         1.694942         0.965919
 C         3.385180         0.689687        -0.156731
 O         2.211729         0.184916        -0.720539
 H         4.064895         0.372684         3.432394
 H         4.798268        -1.032949         2.551754
 H         5.384053         0.623712         2.242417
 H         1.981181        -1.527187         0.862966
 H         1.578213        -0.497215         2.421437
 H        -0.929053        -0.196921         0.581995
 H        -0.306520         1.092345        -0.459384
 H         0.060979        -0.562884        -0.954669
 H         3.262787         2.753492         1.099671
 H         4.236261         0.986907        -0.877553
