19
Iteration:  4782
 C         4.351577         0.647720         2.644040
 C         3.208525         0.679722         1.564009
 C         1.720556         0.600967         1.872347
 C         1.296882         0.365231         0.409883
 C        -0.187252         0.214746         0.121075
 O         1.821229         1.499083        -0.222410
 C         3.302025         1.360752         0.156447
 C         3.421946        -0.186790         0.364063
 O         2.158166        -0.789598        -0.076709
 H         4.117622         1.175740         3.612814
 H         4.413125        -0.451337         2.915527
 H         5.384126         0.932139         2.255594
 H         1.755179        -0.229650         2.576121
 H         1.362980         1.491045         2.351112
 H        -0.103035         0.217792        -0.949993
 H        -0.457450        -0.873817         0.480364
 H        -0.875990         0.885356         0.672061
 H         3.993089         2.145464        -0.316083
 H         4.284112        -0.856629         0.166349
