19
Iteration:  1684charge 0 multiplicity 1
 C         4.377367         0.578299         2.576178
 C         3.229430         0.471475         1.577923
 C         1.734746         0.061380         1.892199
 C         1.324174         0.412389         0.423839
 C        -0.111983         0.188028         0.096573
 O         1.860231         1.682013         0.099830
 C         3.192672         1.476346         0.456797
 C         3.390196        -0.067689         0.118749
 O         2.121494        -0.519822        -0.351768
 H         3.964028         1.131012         3.418827
 H         4.806842        -0.436283         2.847228
 H         5.185631         1.131382         2.009504
 H         1.493740        -0.929763         2.269003
 H         1.233016         0.803966         2.520828
 H        -0.689974         1.106363         0.435230
 H        -0.175393         0.170020        -1.021946
 H        -0.313294        -0.796406         0.476575
 H         3.827259         2.290038         0.309182
 H         4.238668        -0.521924        -0.373356
