19
Iteration:  4628charge 0 multiplicity 1
 C         4.319208         0.638368         2.634210
 C         3.272911         0.542733         1.538724
 C         1.811261         0.512689         1.909228
 C         1.335067         0.367153         0.478226
 C        -0.167379         0.174648         0.112083
 O         1.815080         1.558430        -0.227375
 C         3.187569         1.411824         0.154416
 C         3.416313        -0.109956         0.245347
 O         2.149579        -0.746617         0.001991
 H         4.286114         1.496810         3.352635
 H         4.095771        -0.237400         3.322096
 H         5.344887         0.523265         2.191255
 H         1.558500        -0.356214         2.486966
 H         1.481380         1.459053         2.343757
 H        -0.172403        -0.274689        -0.939478
 H        -0.716841        -0.570732         0.667134
 H        -0.569075         1.203594        -0.037928
 H         3.951538         2.143197        -0.096195
 H         4.124576        -0.848568         0.013739
