19
Iteration:  3379charge 0 multiplicity 1
 C         4.304161         0.766874         2.702295
 C         3.281436         0.671691         1.536549
 C         1.832924         0.523393         1.904906
 C         1.299495         0.298767         0.415719
 C        -0.166137         0.302332        -0.021114
 O         1.867436         1.529415        -0.174160
 C         3.279011         1.250717         0.071401
 C         3.363485        -0.239059         0.301831
 O         2.085421        -0.811550         0.103234
 H         4.389072         1.791002         2.925455
 H         3.871957         0.149697         3.503980
 H         5.342958         0.485429         2.498447
 H         1.572746        -0.355610         2.452234
 H         1.523846         1.424826         2.410055
 H        -0.181948         0.221490        -1.145300
 H        -0.810263        -0.579972         0.302235
 H        -0.563453         1.274739         0.270211
 H         3.871071         1.851733        -0.543595
 H         4.324352        -0.677688         0.092750
