19
Iteration:   778charge 0 multiplicity 1
 C         4.505137        -0.014677         2.348531
 C         3.299903         0.405634         1.587143
 C         1.881294        -0.336290         1.706188
 C         1.340814         0.247383         0.458645
 C        -0.152214         0.093212        -0.002703
 O         1.571708         1.685640         0.540584
 C         2.924079         1.765819         0.743510
 C         3.455178         0.529699         0.115852
 O         2.285763        -0.036459        -0.606345
 H         4.309836         0.175472         3.490206
 H         4.792011        -1.049253         2.195940
 H         5.356349         0.535338         2.031679
 H         1.964282        -1.402712         1.534367
 H         1.335565        -0.192608         2.687479
 H        -0.668911         0.800653         0.652747
 H        -0.294303         0.267068        -1.083433
 H        -0.501931        -0.925648         0.120158
 H         3.513329         2.657954         1.004443
 H         4.335415         0.469309        -0.492210
