19
Iteration:  3259charge 0 multiplicity 1
 C         4.244676         0.876890         2.590540
 C         3.297716         0.656767         1.591461
 C         1.742798         0.486057         1.873638
 C         1.290729         0.277916         0.408099
 C        -0.213369         0.294525         0.003387
 O         1.986213         1.511499        -0.210068
 C         3.319080         1.262327         0.244900
 C         3.341473        -0.255218         0.358556
 O         2.106718        -0.807556         0.022901
 H         4.210023         1.812780         3.176983
 H         4.269598        -0.095304         3.237825
 H         5.233954         0.886707         2.005274
 H         1.588418        -0.398861         2.478228
 H         1.521038         1.389952         2.419595
 H        -0.582458         0.030437        -1.013651
 H        -0.764300        -0.262168         0.751192
 H        -0.397161         1.369100         0.226732
 H         3.979675         1.750003        -0.543851
 H         4.098977        -0.968555        -0.021269
