19
Iteration:  3528
 C         4.319972         0.722479         2.658284
 C         3.217235         0.757418         1.571919
 C         1.770267         0.641789         1.867911
 C         1.271452         0.344774         0.418311
 C        -0.226505         0.103562         0.089725
 O         2.009060         1.522132        -0.239604
 C         3.302260         1.206551         0.177731
 C         3.376685        -0.270735         0.376386
 O         2.061714        -0.698992        -0.057592
 H         4.239946         1.694097         3.214017
 H         4.319880        -0.110291         3.374742
 H         5.262180         0.733190         2.075368
 H         1.564664        -0.120788         2.678929
 H         1.304223         1.559623         2.272680
 H        -0.416284         0.319927        -0.966437
 H        -0.396924        -0.895913         0.187551
 H        -0.840887         0.787997         0.628302
 H         4.159123         1.774655        -0.232534
 H         4.215082        -1.007186         0.162257
