19
Iteration:  3293
 C         4.287347         0.823646         2.689265
 C         3.306022         0.575767         1.569608
 C         1.832474         0.591250         1.938924
 C         1.256357         0.360328         0.466631
 C        -0.046421         0.309513         0.000943
 O         1.859192         1.438745        -0.330676
 C         3.223782         1.241803         0.171957
 C         3.341457        -0.281674         0.303181
 O         2.062916        -0.768402         0.077060
 H         3.985208         1.521209         3.511142
 H         4.549586        -0.197263         3.163237
 H         5.299249         1.172340         2.312234
 H         1.360793        -0.181089         2.558065
 H         1.597412         1.545612         2.421304
 H         0.006143         0.561877        -1.068840
 H        -0.361599        -0.751997         0.099755
 H        -0.684707         0.998671         0.492810
 H         3.853016         1.879359        -0.363917
 H         4.144148        -0.755914        -0.187216
