19
Iteration:  3634
 C         4.283496         0.743419         2.574923
 C         3.203819         0.591330         1.576001
 C         1.803169         0.597437         1.886684
 C         1.320783         0.408887         0.436382
 C        -0.207606         0.172165         0.051029
 O         1.934014         1.498866        -0.212984
 C         3.295085         1.364803         0.200473
 C         3.407664        -0.305797         0.363145
 O         2.088039        -0.734857        -0.011954
 H         4.026173         1.481573         3.362810
 H         4.413875        -0.231680         3.088982
 H         5.215395         0.966110         2.043928
 H         1.501385        -0.288310         2.467684
 H         1.398318         1.509626         2.328090
 H        -0.076129        -0.274577        -0.989239
 H        -0.714095        -0.447078         0.797016
 H        -0.826377         1.138019        -0.040263
 H         4.101310         2.039145        -0.053341
 H         4.250298        -1.010218         0.095798
