19
Iteration:  2143
 C         4.337534         0.827640         2.595700
 C         3.226222         0.546393         1.602039
 C         1.758102         0.323071         1.951540
 C         1.288613         0.323977         0.398495
 C        -0.174049         0.396927         0.057642
 O         1.832262         1.526858        -0.120100
 C         3.235611         1.240072         0.149301
 C         3.434222        -0.212266         0.269819
 O         2.195745        -0.737015        -0.077036
 H         4.469562         1.831419         2.939432
 H         4.167512         0.136378         3.471409
 H         5.258574         0.442489         2.145580
 H         1.403634        -0.557936         2.581274
 H         1.319372         1.307044         2.331195
 H        -0.213692         1.086364        -0.829035
 H        -0.769492        -0.591958         0.120227
 H        -0.675294         1.140639         0.742728
 H         3.979484         2.026078        -0.079598
 H         4.257812        -0.841399         0.000749
