19
Iteration:   681charge 0 multiplicity 1
 C         4.479087         0.003825         2.448556
 C         3.314690         0.337495         1.511235
 C         1.957714        -0.334997         1.615069
 C         1.256269         0.271883         0.421817
 C        -0.244654         0.104446         0.009907
 O         1.507565         1.699730         0.690034
 C         2.984827         1.658263         0.837836
 C         3.458121         0.605739        -0.068386
 O         2.378866        -0.050421        -0.635994
 H         4.264045         0.437185         3.475183
 H         4.767847        -1.080606         2.393742
 H         5.366366         0.461049         2.076654
 H         2.108810        -1.373380         1.322880
 H         1.588272        -0.339114         2.694986
 H        -0.263322        -0.280830        -1.028960
 H        -0.729813        -0.426352         0.864484
 H        -0.624313         1.151045         0.044696
 H         3.465674         2.569495         1.158243
 H         4.311971         0.740843        -0.603771
