19
Iteration:  1529
 C         4.438624         0.484553         2.677087
 C         3.288015         0.399163         1.552378
 C         1.884878         0.004318         1.858330
 C         1.251069         0.304456         0.409978
 C        -0.152829         0.227295         0.029621
 O         1.758533         1.717448         0.171160
 C         3.093635         1.508232         0.433008
 C         3.429103         0.135753         0.038059
 O         2.170514        -0.503034        -0.318054
 H         4.037994         1.114673         3.408546
 H         4.611377        -0.476805         3.224012
 H         5.358432         0.995166         2.226059
 H         1.797901        -1.103873         1.971328
 H         1.361265         0.545711         2.651379
 H        -0.630881        -0.694854        -0.250165
 H        -0.819826         0.669158         0.834155
 H        -0.307207         0.827066        -0.925473
 H         3.690466         2.354323         0.253297
 H         4.164504        -0.438361        -0.455968
