19
Iteration:  1508
 C         4.324631         0.460971         2.584098
 C         3.266487         0.565595         1.526906
 C         1.897704        -0.025442         1.885514
 C         1.325052         0.324130         0.462481
 C        -0.099440         0.306202         0.067978
 O         1.697293         1.616518         0.229991
 C         3.094474         1.527056         0.423849
 C         3.451397         0.025328         0.132001
 O         2.208938        -0.489405        -0.423979
 H         3.937549         0.829662         3.493895
 H         4.350726        -0.648721         2.598902
 H         5.289300         0.973141         2.309624
 H         1.833393        -1.108698         2.098652
 H         1.434914         0.576348         2.672220
 H        -0.765121        -0.509345         0.303892
 H        -0.717188         1.210718         0.419403
 H        -0.100825         0.216195        -1.064969
 H         3.660900         2.379651         0.187854
 H         4.371163        -0.171746        -0.340065
