19
Iteration:  4476
 C         4.365968         0.703501         2.618996
 C         3.231695         0.636827         1.649894
 C         1.688051         0.603773         1.868418
 C         1.265922         0.354898         0.421781
 C        -0.215298         0.042752         0.142115
 O         1.979058         1.641075        -0.114271
 C         3.332106         1.255124         0.238078
 C         3.346594        -0.217688         0.217384
 O         2.139124        -0.661968        -0.159714
 H         4.615512         1.759128         2.717197
 H         4.278206         0.220134         3.597365
 H         5.256313         0.279864         2.137454
 H         1.495199        -0.343647         2.479237
 H         0.999627         1.444802         2.278279
 H        -0.311830        -0.428457        -0.940966
 H        -0.582629        -0.775121         0.785054
 H        -1.128477         0.668301         0.325906
 H         4.066786         1.854239        -0.290698
 H         4.164338        -0.910485        -0.019482
