19
Iteration:  4852charge 0 multiplicity 1
 C         4.349681         0.854379         2.674479
 C         3.292726         0.659355         1.584573
 C         1.874126         0.376435         2.019006
 C         1.316552         0.286581         0.431151
 C        -0.188591         0.333710         0.010136
 O         1.853660         1.515670        -0.165276
 C         3.212887         1.296243         0.185427
 C         3.407482        -0.194538         0.261262
 O         2.034681        -0.833055        -0.100342
 H         4.531400         1.911806         2.941815
 H         4.136589         0.272518         3.589806
 H         5.268668         0.443661         2.251989
 H         1.631550        -0.558924         2.599111
 H         1.308237         1.273235         2.418440
 H        -0.092025        -0.105105        -1.028422
 H        -0.929708        -0.181275         0.522459
 H        -0.478858         1.414343        -0.064666
 H         3.901162         2.008264        -0.164541
 H         4.247435        -0.779601        -0.241087
