19
Iteration:   229charge 0 multiplicity 1
 C         4.611580        -0.023814         2.292126
 C         3.299855         0.180442         1.440216
 C         2.013386        -0.623202         1.307228
 C         1.361890         0.295027         0.262846
 C        -0.077668        -0.001644         0.042780
 O         1.429979         1.651016         0.953683
 C         2.850106         1.617791         1.241781
 C         3.379033         0.750035         0.060490
 O         2.259211         0.378927        -0.763470
 H         4.374060         0.145463         3.422292
 H         5.084047        -1.005360         2.265307
 H         5.358343         0.801477         1.989207
 H         2.245610        -1.494690         0.657636
 H         1.428784        -0.738969         2.202647
 H        -0.337053        -1.069344         0.009075
 H        -0.562580         0.484532         0.935239
 H        -0.445161         0.562509        -0.850913
 H         3.162621         2.636081         1.552476
 H         4.311692         0.881994        -0.414334
