19
Iteration:  1193charge 0 multiplicity 1
 C         4.392189         0.309662         2.574031
 C         3.337304         0.464323         1.503978
 C         1.932002        -0.189737         1.780679
 C         1.249709         0.291765         0.346168
 C        -0.204492         0.241964         0.101454
 O         1.682612         1.717713         0.440589
 C         3.004237         1.621816         0.608110
 C         3.459857         0.232602         0.010807
 O         2.283941        -0.395089        -0.557853
 H         4.063877         0.952259         3.467281
 H         4.583629        -0.781446         2.731674
 H         5.352611         0.787156         2.254373
 H         1.739234        -1.277842         1.986670
 H         1.335630         0.363866         2.536060
 H        -0.678072         1.232253         0.207036
 H        -0.284509        -0.059845        -0.984595
 H        -0.616305        -0.571764         0.801900
 H         3.526288         2.508315         0.826188
 H         4.381403         0.010432        -0.487061
