19
Iteration:  4780
 C         4.341521         0.643193         2.650325
 C         3.213327         0.695859         1.539917
 C         1.744334         0.597151         1.879966
 C         1.286320         0.356803         0.427284
 C        -0.175213         0.235312         0.111490
 O         1.814765         1.495683        -0.220787
 C         3.293794         1.347215         0.153987
 C         3.413390        -0.167945         0.361023
 O         2.165893        -0.809601        -0.065567
 H         4.105186         1.149716         3.601252
 H         4.412587        -0.445668         2.884110
 H         5.350806         0.921827         2.277145
 H         1.754939        -0.296202         2.519199
 H         1.359017         1.530703         2.321622
 H        -0.119987         0.273062        -1.014490
 H        -0.407615        -0.820095         0.450558
 H        -0.862844         0.887995         0.684747
 H         3.896842         2.136024        -0.253184
 H         4.326466        -0.830569         0.184067
