19
Iteration:  2433
 C         4.347874         0.799298         2.637818
 C         3.192549         0.629288         1.554944
 C         1.752626         0.553798         1.846942
 C         1.301522         0.366659         0.414943
 C        -0.120043         0.349536         0.082831
 O         1.954156         1.435103        -0.297002
 C         3.259359         1.257088         0.168319
 C         3.378381        -0.238862         0.369414
 O         2.054396        -0.855818         0.066728
 H         4.312225         1.682654         3.311137
 H         4.438354        -0.071316         3.232038
 H         5.297964         0.869648         2.074267
 H         1.366940        -0.244139         2.447857
 H         1.327702         1.473626         2.213848
 H        -0.520947        -0.644290        -0.084817
 H        -0.701973         0.784049         0.921278
 H        -0.368402         0.909034        -0.834188
 H         3.953478         2.079622        -0.137017
 H         4.329292        -0.746684         0.201744
