19
Iteration:  1190
 C         4.376623         0.303219         2.540112
 C         3.325942         0.468365         1.508958
 C         1.909207        -0.197720         1.777280
 C         1.267439         0.330660         0.357939
 C        -0.187928         0.226930         0.102517
 O         1.673709         1.709627         0.421642
 C         3.021378         1.611642         0.647471
 C         3.439664         0.244245         0.016330
 O         2.302699        -0.393350        -0.559476
 H         4.051506         0.906542         3.343301
 H         4.534409        -0.825915         2.678576
 H         5.357649         0.887538         2.273607
 H         1.742316        -1.214372         2.027279
 H         1.421456         0.371940         2.557868
 H        -0.684290         1.198129         0.188225
 H        -0.370848        -0.225991        -0.862532
 H        -0.602943        -0.467479         0.815492
 H         3.598493         2.542598         0.838984
 H         4.419815        -0.086964        -0.497224
