19
Iteration:   247
 C         4.464016         0.013189         2.184759
 C         3.221614         0.203930         1.496825
 C         2.077854        -0.759781         1.385065
 C         1.337055         0.318913         0.426937
 C        -0.132840         0.062843         0.069909
 O         1.435456         1.606603         0.877641
 C         2.837336         1.618631         1.099781
 C         3.483073         0.770442         0.044981
 O         2.374423         0.432730        -0.712750
 H         4.435296        -0.038587         3.228437
 H         4.840290        -0.983618         1.945152
 H         5.087297         0.864984         1.861299
 H         2.256837        -1.729355         0.912275
 H         1.540042        -0.769566         2.441435
 H        -0.136064        -0.810456        -0.598609
 H        -0.701448        -0.167972         0.969640
 H        -0.481288         0.921091        -0.509378
 H         3.199169         2.456494         1.744833
 H         4.452804         0.912055        -0.548912
