19
Iteration:  4803
 C         4.377211         0.705227         2.609131
 C         3.203139         0.578208         1.598142
 C         1.735132         0.578570         1.888812
 C         1.263032         0.361846         0.402460
 C        -0.168326         0.041496         0.112092
 O         2.023565         1.612387        -0.258699
 C         3.237434         1.216154         0.273477
 C         3.324761        -0.168849         0.328002
 O         2.085172        -0.630996        -0.096036
 H         4.228615         1.589038         3.283929
 H         4.563946        -0.222837         3.220286
 H         5.314590         0.845598         1.979802
 H         1.271671        -0.282609         2.364197
 H         1.391746         1.577718         2.111949
 H        -0.425907        -0.292896        -0.910281
 H        -0.300711        -0.766950         0.986198
 H        -0.762021         0.841706         0.615690
 H         4.028900         1.996186         0.015031
 H         4.200444        -0.759619         0.023576
