19
Iteration:  1540charge 0 multiplicity 1
 C         4.384996         0.543127         2.613335
 C         3.329154         0.386495         1.592091
 C         1.828674         0.015974         1.855124
 C         1.329667         0.392769         0.435894
 C        -0.246566         0.177322         0.036339
 O         1.779083         1.725022         0.177759
 C         3.143720         1.485517         0.499665
 C         3.400304         0.062811         0.053404
 O         2.161580        -0.526604        -0.408056
 H         4.142026         1.260383         3.335701
 H         4.579094        -0.481571         3.035409
 H         5.456941         0.787526         2.246407
 H         1.502525        -0.998420         2.179934
 H         1.541984         0.720785         2.642920
 H        -0.199897        -0.839945        -0.341226
 H        -1.006420         0.310562         0.884208
 H        -0.409176         0.994325        -0.740116
 H         3.860420         2.260877         0.374960
 H         4.357442         0.028655        -0.398492
