19
Iteration:   568
 C         4.436709         0.109955         2.377725
 C         3.310770         0.318463         1.514451
 C         2.040394        -0.416455         1.457440
 C         1.370771         0.289493         0.319878
 C        -0.210701         0.139995         0.093409
 O         1.524717         1.674391         0.793489
 C         2.883231         1.631602         1.008978
 C         3.499342         0.528740         0.011277
 O         2.312797         0.018879        -0.717706
 H         4.337681         0.459273         3.488593
 H         4.704592        -0.895061         2.337061
 H         5.294679         0.653399         1.945420
 H         1.986418        -1.490974         1.172280
 H         1.530365        -0.360845         2.406309
 H        -0.792081         0.496115         0.924766
 H        -0.434518         0.580492        -0.856952
 H        -0.604279        -0.848921        -0.098039
 H         3.199701         2.611506         1.358676
 H         4.326369         0.491128        -0.710002
