19
Iteration:  1073charge 0 multiplicity 1
 C         4.491713         0.264313         2.474906
 C         3.220516         0.371326         1.563577
 C         1.827908        -0.239034         1.740449
 C         1.291579         0.283823         0.381237
 C        -0.200072         0.136646         0.052166
 O         1.621808         1.786626         0.488730
 C         3.054292         1.602361         0.698905
 C         3.515904         0.298249         0.031819
 O         2.284396        -0.221268        -0.577940
 H         4.335678         1.013244         3.289768
 H         4.717384        -0.705817         2.842104
 H         5.403288         0.631695         2.087690
 H         1.804039        -1.349659         1.591641
 H         1.291883         0.074650         2.670100
 H        -0.473606        -0.922916         0.289556
 H        -0.683531         0.751389         0.824961
 H        -0.447905         0.465440        -0.996478
 H         3.675183         2.525788         0.651633
 H         4.369495        -0.138288        -0.569252
