19
Iteration:  4682charge 0 multiplicity 1
 C         4.372696         0.799296         2.543539
 C         3.230581         0.517461         1.606654
 C         1.756959         0.435557         1.933126
 C         1.327347         0.421876         0.414722
 C        -0.183311         0.164983         0.026306
 O         1.884060         1.566649        -0.174280
 C         3.229539         1.319845         0.320645
 C         3.391206        -0.225932         0.318184
 O         2.093473        -0.698197        -0.116753
 H         4.441577         1.916070         2.674674
 H         4.265332         0.267500         3.544222
 H         5.337352         0.417213         2.093935
 H         1.560103        -0.530333         2.358388
 H         1.415920         1.323337         2.475889
 H        -0.504542        -0.083596        -1.070088
 H        -0.392242        -0.611408         0.769749
 H        -0.668850         1.060763         0.506050
 H         4.102021         1.840331         0.068543
 H         4.218427        -0.716887        -0.158993
