19
Iteration:  4388
 C         4.319393         0.903962         2.536596
 C         3.173271         0.512457         1.626285
 C         1.690235         0.405119         1.931145
 C         1.334165         0.394401         0.452387
 C        -0.165160         0.201287         0.162606
 O         2.010115         1.568392        -0.194227
 C         3.260966         1.235804         0.237517
 C         3.395891        -0.253264         0.282797
 O         2.085295        -0.699862        -0.154998
 H         4.049597         1.586878         3.320997
 H         4.684744         0.011672         3.031837
 H         5.169788         1.243556         1.954089
 H         1.237973        -0.433978         2.540477
 H         1.299056         1.409695         2.364847
 H        -0.298050         0.102406        -0.992314
 H        -0.379438        -0.704682         0.716789
 H        -0.752785         1.119081         0.495208
 H         4.032461         1.905630        -0.105908
 H         4.245957        -0.961468         0.071736
