19
Iteration:  4302
 C         4.426923         0.600030         2.649046
 C         3.192982         0.607012         1.655780
 C         1.669587         0.541728         1.893775
 C         1.294355         0.344905         0.400306
 C        -0.187476         0.183546         0.129084
 O         1.887879         1.512253        -0.405171
 C         3.209354         1.360546         0.121315
 C         3.443253        -0.116684         0.345640
 O         2.181780        -0.729627         0.045512
 H         4.525470         1.545220         3.213810
 H         4.355672        -0.112992         3.497734
 H         5.327490         0.423433         2.015376
 H         1.509643        -0.391448         2.501939
 H         1.091816         1.498440         2.177116
 H        -0.630817         0.477992        -0.888895
 H        -0.707545        -0.685009         0.386958
 H        -0.571098         0.963543         0.848817
 H         3.982011         2.149992         0.085681
 H         4.336201        -0.672438         0.134592
