19
Iteration:   518charge 0 multiplicity 1
 C         4.455795         0.010035         2.366332
 C         3.336227         0.305542         1.431783
 C         2.016573        -0.424564         1.553444
 C         1.326452         0.348486         0.404167
 C        -0.080515        -0.032000        -0.088564
 O         1.496928         1.775334         0.916542
 C         2.983737         1.631002         0.990985
 C         3.386551         0.560171        -0.066434
 O         2.215305         0.119488        -0.711749
 H         4.138280         0.291151         3.357436
 H         4.795373        -1.103843         2.264147
 H         5.392168         0.579212         2.177559
 H         2.186184        -1.495170         1.586967
 H         1.523741        -0.084896         2.514577
 H        -0.573375         0.815001        -0.631417
 H        -0.056842        -0.980843        -0.678737
 H        -0.824965        -0.118937         0.776363
 H         3.417456         2.541109         1.414674
 H         4.415813         0.474411        -0.580015
