19
Iteration:  4667charge 0 multiplicity 1
 C         4.412291         0.732912         2.658406
 C         3.285457         0.656435         1.596635
 C         1.772994         0.385754         1.912353
 C         1.262830         0.275677         0.453256
 C        -0.142661         0.245834         0.064284
 O         1.863388         1.553781        -0.140280
 C         3.204466         1.311647         0.136005
 C         3.370058        -0.158954         0.253632
 O         2.101747        -0.714759        -0.079689
 H         4.616370         1.766330         2.921626
 H         4.164760         0.205580         3.576960
 H         5.351065         0.334065         2.298127
 H         1.550907        -0.496566         2.584696
 H         1.266558         1.234006         2.444907
 H         0.023522        -0.051435        -1.020507
 H        -0.832586        -0.447657         0.517554
 H        -0.669873         1.187142         0.044917
 H         3.777385         2.214788        -0.254824
 H         4.242174        -0.789398         0.076727
