19
Iteration:  1903charge 0 multiplicity 1
 C         4.409141         0.499663         2.621894
 C         3.286386         0.583784         1.566622
 C         1.738596         0.307077         1.927001
 C         1.274408         0.398358         0.469880
 C        -0.186550         0.153165         0.055720
 O         1.836930         1.601639        -0.083631
 C         3.212016         1.397341         0.275362
 C         3.454058        -0.038822         0.270102
 O         2.132261        -0.563946        -0.194891
 H         4.323304         1.344504         3.283828
 H         4.162153        -0.551689         3.048626
 H         5.417044         0.510224         2.114090
 H         1.416252        -0.660383         2.291264
 H         1.319915         1.168492         2.451832
 H        -0.359907         0.942688        -0.721190
 H        -0.259422        -0.807537        -0.319041
 H        -0.903875         0.220906         0.889650
 H         3.815739         2.225110        -0.041222
 H         4.225136        -0.616627        -0.212912
