19
Iteration:  3617
 C         4.285030         0.798835         2.661226
 C         3.341724         0.575559         1.502751
 C         1.800995         0.479846         1.994329
 C         1.259113         0.436699         0.492654
 C        -0.086405         0.238453        -0.087967
 O         1.906651         1.501461        -0.212972
 C         3.228304         1.236924         0.156513
 C         3.344229        -0.206995         0.196234
 O         2.037950        -0.757561         0.122007
 H         3.978531         1.761431         3.128243
 H         4.321494        -0.031174         3.374664
 H         5.352120         1.063630         2.501751
 H         1.575326        -0.482523         2.504825
 H         1.652660         1.413089         2.572994
 H        -0.023320        -0.222133        -1.042788
 H        -0.693723        -0.430692         0.536971
 H        -0.568432         1.146815        -0.129780
 H         4.047858         1.960118        -0.216603
 H         4.083672        -0.822768        -0.195171
