19
Iteration:  3204
 C         4.316805         0.737081         2.617563
 C         3.293692         0.654678         1.575067
 C         1.748492         0.620402         1.836863
 C         1.294583         0.271801         0.441469
 C        -0.189355         0.132386         0.046217
 O         2.008946         1.634810        -0.185898
 C         3.298482         1.231917         0.200693
 C         3.352732        -0.218802         0.332039
 O         2.024961        -0.771740        -0.013385
 H         4.348206         1.800127         2.938623
 H         3.880350         0.142862         3.534347
 H         5.334234         0.335185         2.249827
 H         1.622115        -0.128041         2.610747
 H         1.368717         1.585698         2.118070
 H        -0.269377        -0.825627        -0.509444
 H        -0.788867         0.075659         0.918044
 H        -0.696167         0.921865        -0.605073
 H         4.034757         2.059403        -0.105608
 H         4.160506        -0.955523         0.006142
