19
Iteration:   218
 C         4.610790        -0.085823         2.360652
 C         3.378004         0.195567         1.512064
 C         2.048560        -0.558720         1.302403
 C         1.290792         0.365913         0.303129
 C        -0.154195        -0.009430        -0.048874
 O         1.453720         1.601541         1.033488
 C         2.852335         1.600549         1.187940
 C         3.408136         0.840119        -0.054556
 O         2.257000         0.328242        -0.771361
 H         4.373618         0.199138         3.471432
 H         5.093811        -1.053110         2.276003
 H         5.381369         0.711658         2.009765
 H         2.167053        -1.622163         0.978389
 H         1.480840        -0.690408         2.224069
 H        -0.305691        -1.070850         0.213170
 H        -0.782831         0.612003         0.660155
 H        -0.487362         0.109433        -1.108832
 H         3.344501         2.478074         1.683419
 H         4.058122         1.290208        -0.771092
