19
Iteration:  1900charge 0 multiplicity 1
 C         4.392374         0.508741         2.611429
 C         3.273920         0.575601         1.577558
 C         1.750713         0.308923         1.912662
 C         1.275124         0.404159         0.490841
 C        -0.163636         0.155597         0.056512
 O         1.859806         1.626244        -0.068325
 C         3.189932         1.404201         0.269028
 C         3.444743        -0.051606         0.266952
 O         2.115743        -0.576965        -0.216524
 H         4.297151         1.252540         3.396124
 H         4.297351        -0.487962         3.158875
 H         5.391293         0.570818         2.042825
 H         1.438579        -0.686852         2.323710
 H         1.351152         1.172132         2.493797
 H        -0.524417         0.776918        -0.819718
 H        -0.221876        -0.865152        -0.301412
 H        -0.847194         0.258225         0.857190
 H         3.924791         2.197073        -0.094939
 H         4.245142        -0.656150        -0.152070
