19
Iteration:  3134charge 0 multiplicity 1
 C         4.354912         0.833093         2.574084
 C         3.167950         0.584856         1.602389
 C         1.709482         0.529618         1.797598
 C         1.332609         0.378822         0.334197
 C        -0.173421         0.240072         0.114122
 O         1.978848         1.574854        -0.134917
 C         3.302915         1.192219         0.171926
 C         3.307469        -0.293515         0.388389
 O         2.110529        -0.781930        -0.022039
 H         4.183778         1.529361         3.431113
 H         4.644465        -0.136301         2.997100
 H         5.202685         1.197416         2.001447
 H         1.106993        -0.263448         2.298429
 H         1.314305         1.511026         2.175171
 H        -0.389993        -0.838098         0.353881
 H        -0.641856         1.054366         0.830865
 H        -0.482520         0.478000        -0.917628
 H         4.234300         1.828633         0.046015
 H         4.294485        -0.661363         0.068244
