19
Iteration:  4319charge 0 multiplicity 1
 C         4.297352         0.625872         2.566181
 C         3.231999         0.743527         1.560066
 C         1.786984         0.536020         1.897243
 C         1.305969         0.334498         0.409581
 C        -0.184416         0.319745         0.120301
 O         1.877421         1.370639        -0.308708
 C         3.183388         1.405852         0.248054
 C         3.416760        -0.119430         0.345785
 O         2.199806        -0.817994         0.055869
 H         4.236993         1.375106         3.386272
 H         4.136159        -0.367085         3.015267
 H         5.252627         0.574413         2.057688
 H         1.420784        -0.385271         2.372909
 H         1.519109         1.468085         2.341167
 H        -0.241251         0.703576        -0.862588
 H        -0.430332        -0.804911         0.032698
 H        -0.808844         0.969628         0.739789
 H         3.844717         2.107996        -0.302356
 H         4.299145        -0.666975         0.065529
