19
Iteration:  4474
 C         4.371242         0.700658         2.620477
 C         3.234397         0.653908         1.641507
 C         1.676459         0.599163         1.875110
 C         1.268576         0.363334         0.432767
 C        -0.213497         0.038695         0.133158
 O         1.979996         1.641756        -0.098001
 C         3.336884         1.264128         0.215697
 C         3.344702        -0.207474         0.227662
 O         2.125799        -0.688660        -0.165777
 H         4.658588         1.764965         2.714794
 H         4.184828         0.184326         3.598621
 H         5.297263         0.284091         2.181556
 H         1.534038        -0.327908         2.415130
 H         1.058731         1.458543         2.259716
 H        -0.288826        -0.464038        -0.901601
 H        -0.628722        -0.734533         0.742310
 H        -1.093508         0.665824         0.320474
 H         4.076666         1.858492        -0.234463
 H         4.206224        -0.904000        -0.066641
