19
Iteration:   618
 C         4.530695        -0.020755         2.401757
 C         3.383409         0.340430         1.410901
 C         1.960222        -0.284917         1.612424
 C         1.259482         0.392345         0.422379
 C        -0.109441        -0.042318        -0.114865
 O         1.519695         1.754819         0.772881
 C         3.007617         1.630961         0.941206
 C         3.376893         0.545410        -0.008067
 O         2.202472         0.043305        -0.600068
 H         4.138082         0.014513         3.370077
 H         4.917445        -1.105167         2.342195
 H         5.386095         0.705655         2.377676
 H         2.054967        -1.379534         1.567660
 H         1.680869        -0.075771         2.647510
 H        -0.345009        -1.028169         0.370688
 H        -1.018161         0.642215        -0.066922
 H        -0.031693        -0.207518        -1.202985
 H         3.566423         2.523377         1.126173
 H         4.097112         0.426335        -0.704926
