19
Iteration:  4891charge 0 multiplicity 1
 C         4.283756         0.821987         2.557123
 C         3.177973         0.619379         1.619878
 C         1.754572         0.383849         1.928986
 C         1.285022         0.300277         0.485925
 C        -0.179646         0.326091         0.096700
 O         1.896384         1.559676        -0.228942
 C         3.264732         1.296098         0.154919
 C         3.462167        -0.275077         0.313678
 O         2.159717        -0.785433        -0.059310
 H         4.282834         1.839193         2.970864
 H         4.276846         0.122623         3.403190
 H         5.260052         0.652051         2.060894
 H         1.459202        -0.485868         2.480290
 H         1.471646         1.293775         2.402635
 H        -0.401580         0.426034        -0.938539
 H        -0.724123        -0.551355         0.654877
 H        -0.559427         1.285204         0.472899
 H         3.979091         2.013102        -0.277096
 H         4.394305        -0.687278         0.059322
