19
Iteration:  2947charge 0 multiplicity 1
 C         4.294874         0.814073         2.521797
 C         3.188676         0.650722         1.600932
 C         1.645817         0.430620         1.856946
 C         1.246801         0.298274         0.428065
 C        -0.162634         0.390595         0.107658
 O         2.005150         1.466743        -0.228865
 C         3.326486         1.292249         0.164809
 C         3.446865        -0.256722         0.376608
 O         2.101784        -0.800544         0.029814
 H         3.844668         1.462536         3.383338
 H         4.679489        -0.005356         3.137972
 H         5.242283         1.340528         2.255126
 H         1.783895        -0.439526         2.535270
 H         1.236960         1.353672         2.344122
 H        -0.866761        -0.221676         0.750144
 H        -0.489757         1.426227        -0.003043
 H        -0.269090         0.010004        -0.985253
 H         3.958566         1.906157        -0.386576
 H         4.246806        -0.964185         0.038631
