19
Iteration:   528charge 0 multiplicity 1
 C         4.471763         0.054078         2.405716
 C         3.288179         0.235636         1.449495
 C         2.009254        -0.471354         1.543458
 C         1.278772         0.331263         0.401900
 C        -0.085601         0.021252         0.003983
 O         1.560930         1.711034         0.783763
 C         2.922204         1.651753         0.994004
 C         3.448820         0.545089        -0.031246
 O         2.201944         0.212066        -0.698068
 H         4.397257         0.278649         3.456838
 H         4.836765        -1.017428         2.418992
 H         5.228803         0.662111         1.954489
 H         2.058687        -1.554934         1.479988
 H         1.499344        -0.219419         2.513421
 H        -0.576416         0.909714        -0.440611
 H         0.038340        -0.695676        -0.845998
 H        -0.632566        -0.549574         0.813577
 H         3.470672         2.520637         1.368977
 H         4.378582         0.503121        -0.720058
