19
Iteration:  3175
 C         4.295713         0.659555         2.641818
 C         3.311055         0.648880         1.588735
 C         1.820624         0.570311         1.915186
 C         1.276355         0.423898         0.505746
 C        -0.087855         0.290987        -0.044877
 O         1.840556         1.456886        -0.262844
 C         3.182950         1.234662         0.110133
 C         3.410304        -0.153979         0.350578
 O         2.122245        -0.769576         0.070721
 H         4.159562         1.630464         3.140019
 H         3.981957        -0.144058         3.288533
 H         5.330071         0.488500         2.405432
 H         1.692802        -0.291328         2.625047
 H         1.407807         1.453924         2.504831
 H        -0.272090        -0.755746        -0.367044
 H        -0.886897         0.448540         0.718231
 H        -0.407415         0.907588        -0.844996
 H         3.849347         1.926046        -0.482484
 H         4.151306        -0.780102        -0.152989
