19
Iteration:  3456
 C         4.304357         0.840207         2.536107
 C         3.183458         0.646957         1.664602
 C         1.694905         0.586084         1.889239
 C         1.306081         0.328728         0.416066
 C        -0.112831         0.227995         0.098113
 O         2.011339         1.458761        -0.246618
 C         3.301770         1.175910         0.227840
 C         3.335190        -0.252266         0.423572
 O         2.088394        -0.692672        -0.133933
 H         4.211165         1.623052         3.295492
 H         4.522702        -0.135400         3.059928
 H         5.197290         0.984534         1.911170
 H         1.394051        -0.278242         2.465034
 H         1.157743         1.415501         2.331816
 H        -0.473688        -0.261817        -0.840563
 H        -0.520319        -0.458192         0.968537
 H        -0.525603         1.233897         0.215844
 H         4.029565         1.935157        -0.166684
 H         4.178110        -0.986919         0.342165
