19
Iteration:   997
 C         4.424569         0.085009         2.459142
 C         3.276004         0.411276         1.485084
 C         1.966994        -0.211617         1.823828
 C         1.318531         0.328731         0.468090
 C        -0.067458         0.124405         0.040456
 O         1.557088         1.747109         0.440959
 C         2.944419         1.677636         0.703784
 C         3.459800         0.354745        -0.029852
 O         2.268586        -0.195717        -0.558452
 H         4.105188         0.428218         3.619728
 H         4.604073        -0.990810         2.390965
 H         5.328255         0.651559         2.333160
 H         2.192715        -1.318151         1.719007
 H         1.234296         0.017101         2.663093
 H        -0.657457         0.977592         0.524403
 H        -0.117650         0.286486        -1.054925
 H        -0.525176        -0.838123         0.396895
 H         3.332249         2.642406         1.033118
 H         4.331623         0.085325        -0.583840
