19
Iteration:  2475charge 0 multiplicity 1
 C         4.286963         0.958048         2.573389
 C         3.268951         0.439749         1.654926
 C         1.746137         0.497803         1.894013
 C         1.306118         0.383208         0.465740
 C        -0.216079         0.283225         0.049765
 O         2.015036         1.468112        -0.243975
 C         3.387680         1.225074         0.146340
 C         3.357961        -0.250040         0.317198
 O         1.972652        -0.750645         0.019457
 H         4.368940         2.043072         2.746279
 H         4.223713         0.538833         3.577271
 H         5.309866         0.638336         2.308479
 H         1.379764        -0.338346         2.479745
 H         1.527735         1.433608         2.383877
 H        -0.347850        -0.763504        -0.211037
 H        -0.908026         0.785800         0.665024
 H        -0.208487         0.742171        -0.973127
 H         4.157420         2.042110         0.072361
 H         3.959346        -1.081496        -0.105849
