19
Iteration:  3851
 C         4.349978         0.674995         2.664277
 C         3.244133         0.646014         1.592737
 C         1.786720         0.633315         1.888213
 C         1.293253         0.347640         0.450500
 C        -0.212176         0.112914         0.041456
 O         1.920079         1.544647        -0.247015
 C         3.235514         1.277229         0.165922
 C         3.389017        -0.197629         0.340900
 O         2.125847        -0.701490        -0.040664
 H         3.955373         1.370853         3.437021
 H         4.344350        -0.361120         3.091961
 H         5.356661         1.021342         2.360403
 H         1.571977        -0.263112         2.524969
 H         1.542056         1.569865         2.388523
 H        -0.247248        -0.346737        -1.001125
 H        -0.574675        -0.624952         0.728025
 H        -0.875039         1.015854         0.026378
 H         3.884489         2.070624        -0.206281
 H         4.191235        -0.899678         0.087717
