19
Iteration:  1133
 C         4.394984         0.124372         2.465073
 C         3.359430         0.444114         1.544970
 C         1.868754         0.018578         1.784054
 C         1.326570         0.381033         0.439754
 C        -0.144160        -0.007776        -0.005763
 O         1.666855         1.772917         0.478789
 C         3.036621         1.608103         0.637756
 C         3.435510         0.262669         0.052961
 O         2.187743        -0.257077        -0.518243
 H         4.139994         0.439049         3.475101
 H         4.757068        -0.935286         2.571066
 H         5.248960         0.801489         2.096805
 H         1.890140        -1.046172         1.895123
 H         1.479618         0.499899         2.684109
 H        -0.117760        -0.112359        -1.087434
 H        -0.404119        -0.996405         0.388507
 H        -0.977008         0.611902         0.209721
 H         3.680500         2.463770         0.560188
 H         4.209608         0.054270        -0.612278
