19
Iteration:  3551charge 0 multiplicity 1
 C         4.439300         0.830987         2.593933
 C         3.102319         0.503201         1.655281
 C         1.643246         0.547665         1.805741
 C         1.324984         0.478442         0.335421
 C        -0.113610         0.203236         0.187003
 O         1.965184         1.531275        -0.344765
 C         3.264279         1.262485         0.270808
 C         3.361111        -0.280615         0.391081
 O         2.109508        -0.772817        -0.036406
 H         4.290552         1.879951         2.912046
 H         4.390162         0.273260         3.542254
 H         5.388929         0.627001         2.062540
 H         0.993522        -0.302517         2.146439
 H         1.268819         1.396250         2.392249
 H        -0.606758         0.222881        -0.779418
 H        -0.172530        -0.821619         0.451462
 H        -0.569600         0.934250         0.777217
 H         4.163716         1.934700         0.041158
 H         4.318042        -0.853582         0.240508
