19
Iteration:  3384charge 0 multiplicity 1
 C         4.305122         0.798815         2.707453
 C         3.263057         0.673686         1.529265
 C         1.856527         0.524909         1.912493
 C         1.336329         0.299509         0.414539
 C        -0.106627         0.322261        -0.032130
 O         1.860997         1.510862        -0.133998
 C         3.242234         1.239790         0.030352
 C         3.331553        -0.221971         0.323005
 O         2.040787        -0.845426         0.055697
 H         4.455346         1.902601         3.055694
 H         3.873243         0.160383         3.503131
 H         5.360677         0.454484         2.595386
 H         1.660823        -0.424360         2.507217
 H         1.503640         1.362257         2.588201
 H        -0.156352         0.157797        -1.090934
 H        -0.698005        -0.482189         0.320441
 H        -0.514752         1.329489         0.159046
 H         3.945398         1.908629        -0.581637
 H         4.318015        -0.693419         0.144103
