19
Iteration:  4647charge 0 multiplicity 1
 C         4.303410         0.627431         2.638356
 C         3.295626         0.741680         1.474945
 C         1.892126         0.493079         1.949776
 C         1.256325         0.308824         0.520661
 C        -0.126202         0.267823        -0.042017
 O         1.767742         1.471766        -0.093177
 C         3.188203         1.359385         0.164542
 C         3.427782        -0.150443         0.227214
 O         2.168417        -0.785873        -0.001996
 H         4.466600         1.582749         3.219546
 H         3.832896        -0.011785         3.443537
 H         5.307732         0.248208         2.350504
 H         1.773646        -0.434203         2.565300
 H         1.361977         1.277909         2.531517
 H        -0.463916        -0.052576        -1.120642
 H        -0.804145        -0.266148         0.610260
 H        -0.568260         1.308151         0.023545
 H         3.863069         2.034921        -0.480619
 H         4.324638        -0.464718        -0.252413
