19
Iteration:  4517
 C         4.297748         0.760430         2.618192
 C         3.208532         0.626620         1.559712
 C         1.759378         0.436787         1.897003
 C         1.274418         0.414839         0.458208
 C        -0.162590         0.281352         0.095164
 O         1.886055         1.504395        -0.160544
 C         3.228410         1.313763         0.219469
 C         3.427341        -0.205875         0.218530
 O         2.153931        -0.805608        -0.034684
 H         4.238917         1.716405         3.193093
 H         4.434130        -0.169856         3.228253
 H         5.211654         1.005045         2.033426
 H         1.702607        -0.498055         2.382233
 H         1.368262         1.343901         2.326027
 H        -0.243215         0.543307        -1.009070
 H        -0.524810        -0.729555         0.195337
 H        -0.589767         0.992666         0.791728
 H         3.959952         1.906032        -0.261751
 H         4.319712        -0.855375         0.017024
