19
Iteration:  2249
 C         4.288567         0.613282         2.596660
 C         3.205730         0.661593         1.599297
 C         1.770147         0.551548         1.871730
 C         1.276721         0.401493         0.426046
 C        -0.199872         0.298734         0.116177
 O         1.857433         1.473422        -0.253847
 C         3.278265         1.260211         0.103607
 C         3.403358        -0.184959         0.379333
 O         2.221282        -0.737987         0.006675
 H         4.198242         1.460377         3.322607
 H         4.285556        -0.337833         3.093468
 H         5.255773         0.725869         2.038158
 H         1.556603        -0.139335         2.670846
 H         1.401817         1.494936         2.268948
 H        -0.840452         0.957589         0.655273
 H        -0.400168         0.628268        -0.842832
 H        -0.340341        -0.769427         0.285423
 H         4.026341         1.840149        -0.396668
 H         4.242290        -0.877815         0.308924
