19
Iteration:  2061
 C         4.299978         0.571298         2.563394
 C         3.241186         0.652959         1.559214
 C         1.793150         0.520797         1.950579
 C         1.290595         0.408702         0.437027
 C        -0.184992         0.144566         0.082665
 O         1.916087         1.610064        -0.146854
 C         3.212345         1.352956         0.276855
 C         3.432497        -0.240597         0.188873
 O         2.116785        -0.662825        -0.104035
 H         3.976037         1.151943         3.559138
 H         4.479934        -0.399691         3.030639
 H         5.255641         0.997719         2.206649
 H         1.566148        -0.363053         2.530593
 H         1.311424         1.336054         2.472999
 H        -0.385711        -0.980188         0.065634
 H        -0.749857         0.627964         0.893162
 H        -0.395011         0.642543        -0.883426
 H         4.031940         1.841112        -0.157701
 H         4.285888        -0.955064         0.153519
