19
Iteration:  4122charge 0 multiplicity 1
 C         4.317351         0.733040         2.639220
 C         3.272966         0.612291         1.554836
 C         1.816903         0.571228         1.827175
 C         1.305483         0.386643         0.438637
 C        -0.194520         0.195098         0.037793
 O         1.892273         1.533221        -0.232166
 C         3.228048         1.309789         0.180469
 C         3.374111        -0.199147         0.282950
 O         2.126458        -0.818674         0.083753
 H         4.338546         1.718083         3.085981
 H         4.033568        -0.042926         3.376334
 H         5.302156         0.494434         2.259836
 H         1.538363        -0.372334         2.384341
 H         1.359174         1.387594         2.401467
 H        -0.338517         0.490928        -1.026113
 H        -0.569095        -0.786340         0.272842
 H        -0.657706         0.842043         0.778573
 H         3.925020         2.165107        -0.071700
 H         4.245334        -0.666128        -0.054861
