19
Iteration:  4905charge 0 multiplicity 1
 C         4.321831         0.828722         2.575118
 C         3.234930         0.595403         1.561924
 C         1.737041         0.540419         1.910843
 C         1.313453         0.338956         0.377021
 C        -0.145266         0.180708         0.173690
 O         1.987818         1.555775        -0.191615
 C         3.268753         1.251179         0.250365
 C         3.308003        -0.242645         0.326316
 O         2.085459        -0.729711        -0.145157
 H         4.149461         1.818920         3.095911
 H         4.342827         0.001699         3.336285
 H         5.314159         0.934763         2.069141
 H         1.559934        -0.323885         2.521645
 H         1.154126         1.318483         2.378184
 H        -0.311086         0.136264        -0.941630
 H        -0.471733        -0.781823         0.510778
 H        -0.652386         0.963769         0.757821
 H         4.088025         1.836679        -0.058315
 H         4.110034        -1.059918         0.174401
