19
Iteration:   691charge 0 multiplicity 1
 C         4.430547         0.072513         2.453035
 C         3.329646         0.327300         1.484807
 C         2.030413        -0.413901         1.597519
 C         1.344034         0.311145         0.426612
 C        -0.139903         0.126118         0.013598
 O         1.491461         1.680463         0.754406
 C         2.991418         1.660184         0.805684
 C         3.437353         0.547971        -0.085677
 O         2.281863        -0.016319        -0.609024
 H         4.156315         0.404946         3.552209
 H         4.507665        -1.013290         2.641686
 H         5.355632         0.530732         2.197119
 H         2.046181        -1.462761         1.346488
 H         1.344721        -0.238142         2.487899
 H        -0.269958        -0.064459        -1.058499
 H        -0.828631        -0.622165         0.482898
 H        -0.547286         1.139307         0.175049
 H         3.489671         2.616081         0.859228
 H         4.205440         0.516204        -0.777140
