19
Iteration:  1497
 C         4.306617         0.415337         2.532579
 C         3.231353         0.469564         1.592251
 C         1.882694         0.064654         1.885364
 C         1.271866         0.316600         0.447776
 C        -0.186508         0.216022         0.079427
 O         1.775377         1.701635         0.226020
 C         3.094085         1.505004         0.458460
 C         3.430657         0.161725         0.078679
 O         2.259694        -0.532992        -0.447933
 H         4.009956         0.740565         3.497235
 H         4.722201        -0.604404         2.824920
 H         5.314762         0.913689         2.339899
 H         1.864958        -1.013139         2.151981
 H         1.340145         0.661863         2.619818
 H        -0.605429        -0.515237         0.777915
 H        -0.502366         1.335075         0.051110
 H        -0.182232        -0.049687        -1.033639
 H         3.698265         2.320638         0.240881
 H         4.324645        -0.285108        -0.248657
