19
Iteration:   294charge 0 multiplicity 1
 C         4.607202        -0.170100         2.320897
 C         3.412894         0.245723         1.423915
 C         2.051911        -0.503031         1.608302
 C         1.290330         0.286378         0.490166
 C        -0.064983        -0.008890        -0.217149
 O         1.402717         1.622809         1.009202
 C         2.841018         1.695568         1.019278
 C         3.380066         0.762993        -0.082079
 O         2.202803         0.358995        -0.710243
 H         4.381978        -0.471657         3.384889
 H         5.054555        -1.057819         1.974287
 H         5.269924         0.731558         2.248999
 H         2.348590        -1.553077         1.286872
 H         1.615033        -0.490738         2.620640
 H        -0.077210         0.411703        -1.226929
 H        -0.186564        -1.116349        -0.216219
 H        -0.858386         0.472714         0.392316
 H         3.308142         2.607836         1.318751
 H         4.136108         1.075129        -0.738565
