19
Iteration:  3613
 C         4.304866         0.838333         2.707340
 C         3.327328         0.579427         1.532893
 C         1.817604         0.452805         1.984203
 C         1.286053         0.424646         0.499669
 C        -0.078735         0.240466        -0.089700
 O         1.886603         1.504663        -0.186809
 C         3.204141         1.260224         0.089484
 C         3.326631        -0.218388         0.185139
 O         2.033045        -0.770624         0.121112
 H         4.048155         1.812840         3.222219
 H         4.281094        -0.000993         3.432310
 H         5.385071         0.984642         2.451382
 H         1.489957        -0.498924         2.456633
 H         1.705274         1.378748         2.541958
 H         0.124181        -0.135869        -1.147803
 H        -0.747273        -0.354494         0.483308
 H        -0.580435         1.260293        -0.144382
 H         4.147231         1.714314        -0.229613
 H         4.091494        -0.864992        -0.352011
