19
Iteration:   123
 C         4.573886        -0.042476         2.140333
 C         3.250081         0.165055         1.488542
 C         2.021540        -0.712307         1.361384
 C         1.411436         0.313015         0.281101
 C        -0.024576         0.068299         0.032809
 O         1.424884         1.588229         0.940426
 C         2.777776         1.593380         1.290206
 C         3.397623         0.876458         0.080641
 O         2.284978         0.413229        -0.760404
 H         4.429513        -0.236520         3.154506
 H         5.170915        -0.826155         1.639651
 H         5.181715         0.797165         2.079710
 H         2.174832        -1.760869         0.998812
 H         1.414209        -0.850274         2.209549
 H        -0.564373         0.974867         0.123618
 H        -0.216518        -0.442456        -0.903893
 H        -0.333166        -0.494911         0.892211
 H         3.066532         2.544205         1.820608
 H         4.331034         1.154926        -0.412652
