19
Iteration:  2204
 C         4.291704         0.675914         2.605488
 C         3.275503         0.616562         1.547766
 C         1.753747         0.561317         1.900127
 C         1.299218         0.443985         0.450103
 C        -0.218384         0.187607         0.075498
 O         1.910230         1.589683        -0.164754
 C         3.321328         1.265825         0.140458
 C         3.378039        -0.248940         0.331775
 O         2.121929        -0.768015        -0.032966
 H         3.998313         1.307340         3.498469
 H         4.519322        -0.308634         2.926256
 H         5.252816         1.089614         2.210667
 H         1.438087        -0.315626         2.412004
 H         1.363832         1.431374         2.402233
 H        -0.597592         1.127281        -0.259847
 H        -0.335556        -0.317654        -0.790193
 H        -0.782675        -0.244137         0.878645
 H         4.099759         1.914156        -0.392940
 H         4.236043        -0.882527         0.230045
