19
Iteration:   219charge 0 multiplicity 1
 C         4.615777        -0.081416         2.354275
 C         3.372167         0.193946         1.511940
 C         2.042062        -0.559896         1.303147
 C         1.299466         0.363846         0.291172
 C        -0.149511        -0.010307        -0.040834
 O         1.451345         1.605326         1.027651
 C         2.854081         1.604245         1.197713
 C         3.404471         0.830564        -0.049482
 O         2.255141         0.329308        -0.769598
 H         4.378559         0.198363         3.470859
 H         5.106044        -1.064249         2.299891
 H         5.345794         0.720269         2.009889
 H         2.175006        -1.616684         0.937361
 H         1.498588        -0.691671         2.191412
 H        -0.316669        -1.072872         0.196210
 H        -0.743650         0.603697         0.693397
 H        -0.486253         0.139209        -1.093775
 H         3.322873         2.491881         1.678584
 H         4.061607         1.264745        -0.744310
