19
Iteration:  4833charge 0 multiplicity 1
 C         4.335165         0.814654         2.562864
 C         3.240794         0.526305         1.546735
 C         1.757561         0.487611         1.871596
 C         1.268588         0.408604         0.472790
 C        -0.147132         0.153493         0.035957
 O         1.912181         1.569631        -0.080281
 C         3.288256         1.246074         0.201311
 C         3.350324        -0.296662         0.302458
 O         2.114422        -0.633522        -0.088732
 H         4.259996         1.867470         2.781658
 H         4.125407         0.301060         3.491745
 H         5.335498         0.616842         2.228102
 H         1.392329        -0.445703         2.445001
 H         1.371627         1.367700         2.490835
 H        -0.145546        -0.467587        -0.896582
 H        -0.567647        -0.440499         0.816666
 H        -0.635279         1.130137         0.169852
 H         3.974778         1.927849        -0.278695
 H         4.259921        -0.939958         0.096295
