19
Iteration:  1432charge 0 multiplicity 1
 C         4.381241         0.295528         2.523621
 C         3.283114         0.495142         1.504176
 C         1.822065         0.078364         1.809031
 C         1.292538         0.319006         0.474558
 C        -0.074595         0.097793         0.018257
 O         1.757038         1.737050         0.286877
 C         3.073893         1.522906         0.477707
 C         3.434586         0.170247         0.059340
 O         2.190948        -0.376074        -0.334550
 H         4.163977         0.929035         3.382072
 H         4.137789        -0.727569         2.945568
 H         5.402746         0.366738         2.044144
 H         1.766684        -0.964403         2.162807
 H         1.337973         0.776515         2.485710
 H        -0.788432         0.762132         0.513188
 H        -0.283575         0.055894        -1.105585
 H        -0.538238        -0.886437         0.397735
 H         3.630079         2.418831         0.382626
 H         4.368591        -0.254684        -0.275875
