19
Iteration:  2017
 C         4.347673         0.690564         2.545661
 C         3.286034         0.579374         1.555510
 C         1.757261         0.342557         1.966647
 C         1.251347         0.275546         0.458827
 C        -0.188454         0.358344         0.066314
 O         1.871787         1.545266        -0.121273
 C         3.225903         1.349066         0.312952
 C         3.380144        -0.181250         0.258145
 O         2.185293        -0.699182        -0.181267
 H         3.910042         1.338874         3.431637
 H         4.541259        -0.201459         3.142131
 H         5.303863         1.094031         2.236405
 H         1.693066        -0.652812         2.411011
 H         1.286881         1.115860         2.555440
 H        -0.919623         0.084403         0.884906
 H        -0.463439         1.411550        -0.238105
 H        -0.320539        -0.197954        -0.877664
 H         3.970779         2.103142        -0.002915
 H         4.286008        -0.632567        -0.108305
