19
Iteration:  1662
 C         4.405248         0.542146         2.625021
 C         3.312359         0.335746         1.635289
 C         1.806442         0.179298         1.860496
 C         1.288950         0.414804         0.434180
 C        -0.250322         0.109115         0.064888
 O         1.825199         1.764536         0.062991
 C         3.143342         1.424307         0.416993
 C         3.405725        -0.073337         0.146646
 O         2.181976        -0.423852        -0.356427
 H         3.898184         0.993105         3.497255
 H         4.910670        -0.424676         2.921221
 H         5.160881         1.216266         2.112009
 H         1.495193        -0.867708         1.987831
 H         1.380583         0.726243         2.703889
 H        -0.755752         1.122639        -0.076200
 H        -0.285666        -0.521750        -0.870096
 H        -0.543069        -0.540993         0.853117
 H         3.902380         2.144693         0.246136
 H         4.299346        -0.490723        -0.316986
