19
Iteration:  1332charge 0 multiplicity 1
 C         4.391702         0.325424         2.637056
 C         3.328051         0.460262         1.511601
 C         1.924688        -0.032960         1.857891
 C         1.308568         0.292458         0.439378
 C        -0.168915         0.134131         0.061697
 O         1.731400         1.726792         0.272570
 C         3.078450         1.580523         0.579316
 C         3.425057         0.122187         0.050945
 O         2.126540        -0.323398        -0.528682
 H         3.893724         0.688863         3.488259
 H         4.651279        -0.752834         2.742642
 H         5.398702         0.873281         2.487360
 H         1.809844        -1.079332         2.088778
 H         1.576055         0.621691         2.641276
 H        -0.217777        -0.415627        -0.911633
 H        -0.673992        -0.441434         0.793818
 H        -0.759107         1.036631        -0.217513
 H         3.742699         2.427152         0.446158
 H         4.314648        -0.000262        -0.549704
