19
Iteration:  4129charge 0 multiplicity 1
 C         4.275893         0.717573         2.630400
 C         3.268804         0.618691         1.476357
 C         1.840245         0.600348         1.873162
 C         1.278381         0.449369         0.439156
 C        -0.074133         0.171263         0.035852
 O         1.832810         1.554086        -0.170786
 C         3.271212         1.323401         0.146242
 C         3.330131        -0.224729         0.299430
 O         2.122015        -0.861447         0.084725
 H         4.231203         1.691156         3.108592
 H         4.039662        -0.107133         3.284522
 H         5.347108         0.521441         2.443275
 H         1.573353        -0.287584         2.368726
 H         1.416026         1.479328         2.314769
 H        -0.314891         0.471671        -1.003216
 H        -0.327998        -0.857421         0.195453
 H        -0.789102         0.800590         0.627769
 H         4.001294         2.079746        -0.093604
 H         4.178206        -0.773341        -0.108609
