19
Iteration:  4982
 C         4.353366         0.675883         2.616019
 C         3.222031         0.737232         1.602339
 C         1.764833         0.498934         1.949462
 C         1.277081         0.308840         0.464982
 C        -0.222065         0.338707         0.025443
 O         1.868536         1.428420        -0.277939
 C         3.185330         1.299492         0.080415
 C         3.446703        -0.107349         0.374982
 O         2.190297        -0.875657         0.030366
 H         4.243104         1.573867         3.300842
 H         4.509992        -0.331921         3.107776
 H         5.291294         0.912914         2.042376
 H         1.565423        -0.310773         2.574493
 H         1.375434         1.345966         2.465359
 H        -0.411754         0.468863        -1.110483
 H        -0.834912        -0.413108         0.418401
 H        -0.403952         1.359344         0.458696
 H         3.922691         2.113360        -0.217013
 H         4.391942        -0.621589         0.122336
