19
Iteration:    21charge 0 multiplicity 1
 C         4.711228        -0.210894         2.146443
 C         3.335163         0.189688         1.518093
 C         2.108071        -0.745795         1.182898
 C         1.296235         0.327475         0.371159
 C        -0.132051        -0.063758         0.037424
 O         1.361810         1.607767         0.963939
 C         2.743642         1.580348         1.367129
 C         3.384833         1.058088         0.093399
 O         2.314213         0.540230        -0.758411
 H         4.750013        -0.292213         3.262573
 H         4.945953        -1.140855         1.804889
 H         5.452318         0.569767         1.828100
 H         2.382206        -1.470131         0.455383
 H         1.536904        -1.127464         2.049805
 H        -0.475210        -0.980450         0.622933
 H        -0.854366         0.760935         0.232578
 H        -0.243835        -0.249117        -1.075861
 H         3.047718         2.453363         1.971912
 H         4.181151         1.514743        -0.449920
