19
Iteration:  2063
 C         4.279156         0.578796         2.577992
 C         3.247292         0.654633         1.555383
 C         1.801139         0.541514         1.966429
 C         1.288277         0.399537         0.432846
 C        -0.155436         0.125322         0.076984
 O         1.915693         1.623368        -0.141356
 C         3.209276         1.342816         0.293155
 C         3.425211        -0.253105         0.169961
 O         2.098776        -0.661395        -0.118290
 H         4.076465         1.159192         3.503453
 H         4.441601        -0.356532         2.943679
 H         5.242690         0.963258         2.202419
 H         1.560667        -0.368686         2.531455
 H         1.361014         1.440958         2.430203
 H        -0.300268        -0.966904         0.085134
 H        -0.735104         0.496496         0.865724
 H        -0.463258         0.720499        -0.801974
 H         4.092765         1.825444        -0.111204
 H         4.270931        -0.996025         0.192791
