19
Iteration:  3184charge 0 multiplicity 1
 C         4.296227         0.671449         2.715178
 C         3.304186         0.676021         1.477791
 C         1.764582         0.587589         1.935425
 C         1.329996         0.376650         0.439951
 C        -0.151999         0.234658        -0.008223
 O         1.857757         1.538731        -0.198793
 C         3.226342         1.306954         0.112746
 C         3.362966        -0.266376         0.256345
 O         2.112234        -0.791363         0.113892
 H         4.413799         1.657810         3.225476
 H         4.044995        -0.090666         3.521436
 H         5.290887         0.450666         2.250505
 H         1.531985        -0.349848         2.488845
 H         1.457135         1.553703         2.398543
 H        -0.163839        -0.747976        -0.503262
 H        -0.914259         0.375782         0.733738
 H        -0.202639         0.959279        -0.827343
 H         3.976875         1.814929        -0.588369
 H         4.373101        -0.652107         0.078737
