19
Iteration:  1910charge 0 multiplicity 1
 C         4.409446         0.477427         2.613975
 C         3.292381         0.596714         1.591007
 C         1.742623         0.342509         1.923387
 C         1.282714         0.357915         0.411416
 C        -0.217928         0.181852         0.063937
 O         1.782294         1.560392        -0.106837
 C         3.229352         1.420962         0.301308
 C         3.433691        -0.063508         0.206612
 O         2.187889        -0.558837        -0.136059
 H         4.408592         1.379835         3.212721
 H         4.078264        -0.470343         3.050855
 H         5.489121         0.318333         2.285467
 H         1.503142        -0.669316         2.375176
 H         1.236097         1.144752         2.518068
 H        -0.223734         1.147905        -0.478378
 H        -0.361048        -0.762175        -0.527577
 H        -0.891958         0.231863         0.879512
 H         3.781174         2.394064         0.057514
 H         4.308935        -0.524172        -0.261000
