19
Iteration:  1348charge 0 multiplicity 1
 C         4.375492         0.402668         2.576734
 C         3.293141         0.275772         1.563630
 C         1.833169        -0.013244         1.773592
 C         1.268973         0.403473         0.423443
 C        -0.185134         0.074717         0.086321
 O         1.750881         1.717136         0.269968
 C         3.172786         1.496852         0.599083
 C         3.458066         0.156896         0.040439
 O         2.163948        -0.272296        -0.492925
 H         4.148035         1.031966         3.535992
 H         4.875735        -0.484809         2.989695
 H         5.107252         1.049229         2.143101
 H         1.701089        -1.096288         2.039800
 H         1.268498         0.574189         2.534030
 H        -0.218815        -0.125107        -0.986144
 H        -0.603822        -0.820529         0.656958
 H        -0.629320         0.937693         0.544961
 H         3.718292         2.434204         0.502115
 H         4.313445        -0.188736        -0.587918
