19
Iteration:  1517
 C         4.324864         0.450852         2.638917
 C         3.340739         0.527403         1.535104
 C         1.846205        -0.014939         1.840307
 C         1.328831         0.253652         0.492331
 C        -0.135449         0.297989         0.001969
 O         1.655243         1.643882         0.185372
 C         3.114991         1.564516         0.410268
 C         3.442776        -0.014065         0.073218
 O         2.188078        -0.440002        -0.335260
 H         4.087587         1.011775         3.484183
 H         4.742631        -0.561543         2.896166
 H         5.321735         0.942922         2.286932
 H         2.019266        -1.094137         2.053377
 H         1.325465         0.410054         2.708327
 H        -0.533854        -0.669427         0.255218
 H        -0.507394         1.081247         0.675640
 H        -0.146166         0.729715        -1.061923
 H         3.660395         2.441230         0.259654
 H         4.292127        -0.351966        -0.497254
