19
Iteration:  1609charge 0 multiplicity 1
 C         4.388575         0.339843         2.634390
 C         3.313900         0.516017         1.568120
 C         1.861332         0.113300         1.888892
 C         1.264859         0.348613         0.455368
 C        -0.157045         0.205067         0.015505
 O         1.666076         1.646657         0.070266
 C         3.146816         1.599027         0.342423
 C         3.463822         0.125272         0.162452
 O         2.203855        -0.527881        -0.286848
 H         4.272401         1.136892         3.407553
 H         4.203995        -0.700735         2.868496
 H         5.366409         0.238220         2.241562
 H         1.711705        -0.886836         2.310451
 H         1.473210         0.825914         2.637059
 H        -0.366142         0.561965        -1.062968
 H        -0.448983        -0.883776         0.106166
 H        -0.763823         0.660151         0.780230
 H         3.755343         2.490691         0.148098
 H         4.405273        -0.317239        -0.211789
