19
Iteration:   639charge 0 multiplicity 1
 C         4.488804        -0.033363         2.322352
 C         3.187168         0.326134         1.523429
 C         1.868755        -0.330729         1.675649
 C         1.329575         0.324371         0.439004
 C        -0.054090        -0.069877        -0.032788
 O         1.597901         1.793588         0.722839
 C         2.959664         1.663252         0.857512
 C         3.473755         0.549136         0.055054
 O         2.259755         0.078210        -0.673222
 H         4.476746        -0.016582         3.348266
 H         4.945544        -1.027503         1.953747
 H         5.196466         0.735067         1.964395
 H         1.966146        -1.411926         1.621655
 H         1.147247        -0.111381         2.484339
 H        -0.144542        -1.192543        -0.009364
 H        -0.702059         0.496108         0.706005
 H        -0.495813         0.371948        -0.960584
 H         3.415096         2.613674         1.052165
 H         4.340547         0.465311        -0.457063
