19
Iteration:  4556
 C         4.331621         0.823384         2.673562
 C         3.290519         0.609307         1.572920
 C         1.851064         0.455445         1.917387
 C         1.271615         0.410703         0.504410
 C        -0.126718         0.331532         0.014664
 O         1.826194         1.462212        -0.186952
 C         3.224365         1.291845         0.227924
 C         3.349117        -0.223313         0.196917
 O         2.103755        -0.834464        -0.065635
 H         4.003244         1.247382         3.623649
 H         4.810856        -0.117008         2.950201
 H         5.121369         1.403998         2.208777
 H         1.522668        -0.483050         2.522942
 H         1.594364         1.327517         2.597896
 H        -0.217903         0.673163        -0.976970
 H        -0.464598        -0.798364         0.082183
 H        -0.810458         1.039096         0.564991
 H         3.838727         2.009935        -0.279663
 H         4.338938        -0.766412         0.018158
