19
Iteration:   858
 C         4.450417         0.180985         2.461899
 C         3.276199         0.286305         1.483937
 C         1.905810        -0.314329         1.610835
 C         1.342222         0.422172         0.319853
 C        -0.161493         0.058703         0.117421
 O         1.621118         1.756768         0.553835
 C         2.971921         1.607969         0.908452
 C         3.420381         0.386421         0.015456
 O         2.275373        -0.112392        -0.634708
 H         4.131678         0.718949         3.343714
 H         4.737206        -0.851313         2.865238
 H         5.289929         0.850677         2.100918
 H         2.083491        -1.388758         1.313242
 H         1.498870        -0.192582         2.592535
 H        -0.428042        -1.025035         0.147257
 H        -0.502293         0.644134         0.973751
 H        -0.522695         0.464696        -0.846423
 H         3.589891         2.462160         1.031442
 H         4.224963         0.474294        -0.671932
