19
Iteration:  2687
 C         4.237596         0.794852         2.636286
 C         3.230540         0.627124         1.489025
 C         1.822500         0.682763         1.885088
 C         1.303901         0.348985         0.484662
 C        -0.146441         0.211713         0.059368
 O         1.973905         1.516938        -0.203113
 C         3.301208         1.252849         0.190876
 C         3.366085        -0.388223         0.271131
 O         2.044305        -0.728342         0.031359
 H         4.354884         1.890780         2.981364
 H         3.861764         0.093793         3.403364
 H         5.171817         0.362945         2.199750
 H         1.554751        -0.139221         2.559757
 H         1.463307         1.657458         2.213774
 H        -0.446981        -0.686050         0.718393
 H        -0.834154         1.035205        -0.001891
 H        -0.044253        -0.373619        -0.950126
 H         3.982384         2.147334        -0.048843
 H         4.180630        -0.993638         0.042030
