19
Iteration:   673charge 0 multiplicity 1
 C         4.506533        -0.020551         2.408362
 C         3.357382         0.342295         1.507654
 C         1.915976        -0.374764         1.625966
 C         1.222103         0.319956         0.427096
 C        -0.235532         0.116980         0.035785
 O         1.563076         1.717420         0.611311
 C         2.887356         1.692837         0.927446
 C         3.486040         0.608991         0.006966
 O         2.374258        -0.068874        -0.692002
 H         4.440061         0.241078         3.396935
 H         4.765874        -1.124676         2.361189
 H         5.398655         0.562586         2.044678
 H         2.174145        -1.439858         1.536049
 H         1.544233        -0.136514         2.624965
 H        -0.443416        -0.622162        -0.785932
 H        -0.678825        -0.478082         0.857711
 H        -0.761239         1.052154        -0.210902
 H         3.339565         2.649688         1.219100
 H         4.457277         0.701430        -0.452225
