19
Iteration:  3588
 C         4.339675         0.894015         2.658713
 C         3.331183         0.682766         1.533615
 C         1.783388         0.469071         1.929035
 C         1.268679         0.302757         0.432904
 C        -0.148808         0.331936        -0.054782
 O         1.882263         1.491196        -0.082665
 C         3.233235         1.207575         0.157575
 C         3.371657        -0.301020         0.345331
 O         2.061863        -0.810221        -0.093666
 H         4.266117         1.954574         2.855402
 H         4.184276         0.337917         3.600059
 H         5.399674         0.798320         2.440125
 H         1.750443        -0.437966         2.510516
 H         1.431589         1.376788         2.430623
 H        -0.086445         0.282018        -1.156980
 H        -0.875133        -0.409178         0.479879
 H        -0.603703         1.330348         0.257221
 H         4.009730         1.789418        -0.296309
 H         4.185454        -0.998639         0.237075
