19
Iteration:    74charge 0 multiplicity 1
 C         4.605667        -0.214822         2.299549
 C         3.461381         0.153526         1.323057
 C         2.201733        -0.613479         1.365266
 C         1.310660         0.242652         0.440272
 C        -0.053063        -0.004689        -0.204107
 O         1.412918         1.567355         1.129295
 C         2.836353         1.638162         1.239461
 C         3.243893         0.988547        -0.034117
 O         2.131000         0.506341        -0.723515
 H         4.097728        -0.130451         3.328898
 H         5.150562        -1.140430         2.123123
 H         5.448173         0.585823         2.262989
 H         2.251476        -1.643619         1.089597
 H         1.794959        -0.709093         2.439976
 H         0.194675        -0.181793        -1.308721
 H        -0.527989        -0.925733         0.206839
 H        -0.773936         0.877839        -0.198713
 H         3.266648         2.525940         1.684809
 H         4.016873         1.307140        -0.683204
