19
Iteration:   973
 C         4.533940         0.042863         2.393899
 C         3.257391         0.377364         1.563392
 C         1.814260        -0.190946         1.727613
 C         1.288404         0.346427         0.353856
 C        -0.196035         0.027722         0.035627
 O         1.602316         1.734522         0.472748
 C         3.007647         1.639197         0.782693
 C         3.484282         0.486343         0.059106
 O         2.331217        -0.164398        -0.516308
 H         4.533591         0.320329         3.553347
 H         4.829888        -0.998936         2.255404
 H         5.273840         0.740509         2.022829
 H         1.688904        -1.256173         1.915824
 H         1.220644         0.419310         2.545098
 H        -0.744459         1.019592        -0.036479
 H        -0.354277        -0.490898        -0.944608
 H        -0.647155        -0.472518         0.899742
 H         3.464346         2.552553         0.464139
 H         4.435202         0.301595        -0.398000
