19
Iteration:   832
 C         4.476281         0.057528         2.456197
 C         3.281597         0.341931         1.508109
 C         1.872313        -0.282869         1.757798
 C         1.324202         0.335540         0.431251
 C        -0.130510        -0.033731        -0.022975
 O         1.616898         1.745789         0.628599
 C         3.032122         1.651423         0.764396
 C         3.419472         0.492468        -0.055082
 O         2.226422         0.027387        -0.626724
 H         4.297788         0.316552         3.578782
 H         4.843006        -0.915567         2.479059
 H         5.127059         0.808707         2.161116
 H         1.836168        -1.363642         1.815809
 H         1.425602         0.211655         2.676781
 H        -0.485050        -0.908254         0.555189
 H        -0.804457         0.822856         0.095356
 H         0.052806        -0.388006        -1.023815
 H         3.687850         2.541777         0.663715
 H         4.131853        -0.227625        -0.534413
