19
Iteration:  2571charge 0 multiplicity 1
 C         4.304105         0.724387         2.618427
 C         3.252489         0.754540         1.594206
 C         1.765362         0.624629         1.930269
 C         1.323376         0.360391         0.425372
 C        -0.257248         0.180887         0.047473
 O         2.000339         1.522733        -0.278208
 C         3.314841         1.210080         0.126370
 C         3.376491        -0.278768         0.347694
 O         2.047152        -0.740438         0.040075
 H         4.136929         1.245372         3.556179
 H         4.393448        -0.427496         2.791239
 H         5.285549         1.031453         2.251418
 H         1.357105        -0.223412         2.539994
 H         1.293798         1.568699         2.286355
 H        -0.832861        -0.112514         0.926561
 H        -0.477227         1.149883        -0.320633
 H        -0.406718        -0.633379        -0.710069
 H         4.232034         1.820173        -0.166369
 H         4.225953        -0.872924         0.142236
