19
Iteration:  2565
 C         4.339194         0.695228         2.626576
 C         3.235619         0.717010         1.553229
 C         1.720630         0.633994         1.874078
 C         1.303531         0.408072         0.440578
 C        -0.213870         0.195996         0.083372
 O         1.976986         1.516088        -0.279938
 C         3.275825         1.243248         0.123467
 C         3.388881        -0.251364         0.383314
 O         2.105222        -0.778142         0.055375
 H         4.067345         1.225606         3.580930
 H         4.299873        -0.355748         2.745902
 H         5.318199         0.995676         2.187203
 H         1.377810        -0.256853         2.381727
 H         1.269589         1.531266         2.277531
 H        -0.824070        -0.130392         0.935679
 H        -0.445438         1.248118        -0.338707
 H        -0.359766        -0.508656        -0.709440
 H         4.136179         1.766880        -0.243654
 H         4.170008        -1.052986         0.326254
