19
Iteration:  1559
 C         4.367157         0.485142         2.540823
 C         3.199256         0.373849         1.581361
 C         1.776297         0.175514         1.863958
 C         1.274318         0.416243         0.424727
 C        -0.115265         0.078543         0.081609
 O         1.801825         1.701326         0.245134
 C         3.157692         1.465748         0.486783
 C         3.433069        -0.049499         0.078966
 O         2.221439        -0.368040        -0.444383
 H         4.111714         1.452752         3.021203
 H         4.512984        -0.432096         3.139433
 H         5.352697         0.660906         1.965070
 H         1.643736        -0.870980         2.239015
 H         1.334589         0.863275         2.625371
 H        -0.190973        -0.725642        -0.644973
 H        -0.650764        -0.234276         0.934014
 H        -0.690702         0.943203        -0.397068
 H         3.721060         2.337757         0.460394
 H         4.292057        -0.680761        -0.286431
