19
Iteration:  3466
 C         4.354640         0.728076         2.614421
 C         3.162252         0.737472         1.598385
 C         1.715406         0.537348         1.975562
 C         1.311750         0.340345         0.428836
 C        -0.192022         0.244518         0.036191
 O         1.979830         1.450756        -0.288533
 C         3.312480         1.278878         0.134896
 C         3.382212        -0.274158         0.384917
 O         2.084110        -0.719668        -0.026666
 H         4.068472         1.480161         3.361489
 H         4.575343        -0.129372         3.267938
 H         5.289654         1.099017         2.152688
 H         1.502936        -0.292108         2.632330
 H         1.301897         1.490591         2.274795
 H        -0.306090        -0.141403        -1.041892
 H        -0.712381        -0.501284         0.814296
 H        -0.797445         1.138069         0.215051
 H         4.095306         1.928011        -0.374848
 H         4.318862        -0.907634         0.224595
