19
Iteration:  1614charge 0 multiplicity 1
 C         4.357081         0.333755         2.609360
 C         3.311697         0.520657         1.561861
 C         1.809611         0.092397         1.890442
 C         1.325388         0.300785         0.493389
 C        -0.147179         0.220080         0.035115
 O         1.669589         1.683119         0.060167
 C         3.108731         1.601959         0.314810
 C         3.451880         0.081162         0.175763
 O         2.223465        -0.514961        -0.293037
 H         4.173567         1.038474         3.426586
 H         4.217773        -0.703353         3.025919
 H         5.439668         0.388818         2.231724
 H         1.819951        -0.851589         2.478219
 H         1.542645         0.869475         2.622012
 H        -0.151448         0.713842        -0.898832
 H        -0.387574        -0.819923        -0.106117
 H        -0.782241         0.611343         0.864011
 H         3.752853         2.415469        -0.023139
 H         4.392314        -0.173104        -0.298928
