19
Iteration:  3406
 C         4.287808         0.906512         2.657297
 C         3.268978         0.684979         1.567664
 C         1.817109         0.442351         1.958746
 C         1.285668         0.364949         0.548037
 C        -0.125313         0.322271         0.008224
 O         1.893793         1.472448        -0.206828
 C         3.299275         1.184228         0.200589
 C         3.349982        -0.372445         0.245154
 O         2.057807        -0.735028        -0.063345
 H         4.354053         2.040714         2.814593
 H         4.007090         0.301682         3.537190
 H         5.329656         0.682980         2.359016
 H         1.566819        -0.483593         2.540551
 H         1.346406         1.317065         2.490532
 H         0.036212        -0.157008        -0.934428
 H        -0.848089        -0.271406         0.466066
 H        -0.457653         1.353207        -0.186172
 H         3.941768         1.916211        -0.345535
 H         4.213505        -0.925676        -0.079057
