19
Iteration:  4454
 C         4.315230         0.687919         2.622147
 C         3.307489         0.615654         1.528220
 C         1.860253         0.483128         1.902578
 C         1.295939         0.359364         0.406325
 C        -0.078496         0.129668         0.047253
 O         1.833527         1.596438        -0.156195
 C         3.198867         1.358079         0.209269
 C         3.373802        -0.204026         0.280719
 O         2.060359        -0.698835        -0.026798
 H         4.612748         1.672019         2.983865
 H         3.906475         0.152533         3.479416
 H         5.187419         0.074634         2.378317
 H         1.553565        -0.334293         2.624503
 H         1.439698         1.436374         2.409151
 H        -0.159093        -0.380013        -1.020329
 H        -0.573569        -0.471545         0.825001
 H        -0.726815         1.063223         0.028394
 H         3.831116         2.091849        -0.232392
 H         4.266911        -0.845190         0.057493
