19
Iteration:  2681
 C         4.220207         0.790781         2.614442
 C         3.241257         0.614804         1.463951
 C         1.785377         0.644730         1.866174
 C         1.293681         0.390385         0.462982
 C        -0.140635         0.226681         0.086067
 O         1.956813         1.517522        -0.182865
 C         3.331356         1.262464         0.165531
 C         3.405096        -0.320441         0.297274
 O         2.040628        -0.805069         0.034346
 H         4.466314         1.785433         2.877790
 H         3.968195         0.213714         3.524098
 H         5.210842         0.455851         2.310393
 H         1.604677        -0.157709         2.610360
 H         1.369239         1.617118         2.207952
 H        -0.667305        -0.495921         0.688518
 H        -0.826335         1.060735        -0.156970
 H        -0.165972        -0.321271        -0.827964
 H         4.066878         2.051652         0.172740
 H         4.297680        -0.951404         0.056997
