19
Iteration:   737charge 0 multiplicity 1
 C         4.495081         0.213703         2.519161
 C         3.298497         0.193534         1.414559
 C         1.857268        -0.419895         1.540157
 C         1.272249         0.327583         0.377699
 C        -0.186282         0.087996         0.048377
 O         1.635609         1.746401         0.736208
 C         3.016045         1.579760         0.844178
 C         3.478271         0.491475        -0.056150
 O         2.249662         0.020650        -0.620957
 H         4.164614         0.670575         3.475697
 H         4.784365        -0.848050         2.865203
 H         5.332661         0.826715         2.102306
 H         1.653551        -1.504820         1.537490
 H         1.498976         0.022277         2.505200
 H        -0.718095         0.861365        -0.598664
 H         0.049237        -0.819104        -0.592721
 H        -0.682238        -0.286299         0.961654
 H         3.532131         2.553434         0.955719
 H         4.359989         0.569776        -0.736132
