19
Iteration:  3937
 C         4.233132         0.866004         2.661003
 C         3.333391         0.492377         1.538996
 C         1.881175         0.474307         1.925013
 C         1.254243         0.445829         0.457757
 C        -0.071520         0.210957        -0.031851
 O         1.864808         1.553658        -0.173992
 C         3.264908         1.346638         0.235622
 C         3.394852        -0.303889         0.204919
 O         2.005073        -0.797887         0.017608
 H         4.192684         1.948422         2.903089
 H         4.077481         0.437990         3.682392
 H         5.291814         0.787929         2.395680
 H         1.636527        -0.350307         2.671185
 H         1.656267         1.405124         2.495383
 H        -0.122489         0.514279        -1.078604
 H        -0.413137        -0.725002         0.086422
 H        -0.861326         0.718506         0.480830
 H         4.053031         1.926028        -0.224747
 H         4.004963        -1.172675        -0.240392
