19
Iteration:  1738charge 0 multiplicity 1
 C         4.372612         0.430115         2.624880
 C         3.309524         0.540043         1.534344
 C         1.814501         0.250357         1.863097
 C         1.287655         0.383825         0.470672
 C        -0.149573         0.116402         0.062168
 O         1.762001         1.626034         0.022472
 C         3.204049         1.509697         0.410044
 C         3.398014         0.040513         0.145808
 O         2.114876        -0.544345        -0.280984
 H         4.391166         1.334807         3.204530
 H         4.044771        -0.354745         3.341492
 H         5.348534         0.253774         2.077375
 H         1.918907        -0.810606         2.108520
 H         1.386249         0.803178         2.694587
 H        -0.749767        -0.147991         0.969939
 H        -0.300023         1.108425        -0.349822
 H        -0.135463        -0.590959        -0.729663
 H         3.850076         2.318697         0.221255
 H         4.286579        -0.484388        -0.170468
