19
Iteration:  4269
 C         4.234521         0.789416         2.579566
 C         3.243390         0.597221         1.497668
 C         1.850166         0.569538         1.908979
 C         1.302554         0.433067         0.480002
 C        -0.125637         0.044295         0.067728
 O         1.953413         1.600382        -0.118663
 C         3.313812         1.265736         0.255981
 C         3.330836        -0.339511         0.270500
 O         2.014902        -0.684445        -0.108934
 H         4.211148         1.905456         2.724498
 H         3.991414         0.167465         3.481378
 H         5.282243         0.444529         2.288433
 H         1.704626        -0.216086         2.690848
 H         1.349884         1.554284         2.288894
 H        -0.093588        -0.140768        -1.070884
 H        -0.367386        -0.742753         0.731765
 H        -0.786895         0.939858         0.207680
 H         4.184249         2.012617         0.118379
 H         4.152294        -0.921643         0.018835
