19
Iteration:  4250
 C         4.281788         0.898918         2.662120
 C         3.311687         0.385657         1.562618
 C         1.759435         0.457005         1.946201
 C         1.274039         0.398604         0.516784
 C        -0.128675         0.194793         0.021402
 O         1.949191         1.611573        -0.125794
 C         3.232225         1.228755         0.109366
 C         3.392899        -0.212905         0.175818
 O         2.067700        -0.702283        -0.003042
 H         4.043031         1.983381         2.895781
 H         4.137727         0.330234         3.636333
 H         5.366937         0.736605         2.390086
 H         1.382877        -0.385241         2.494496
 H         1.651894         1.401297         2.425860
 H        -0.109815        -0.269569        -1.009923
 H        -0.624548        -0.547119         0.632003
 H        -0.752486         1.096356        -0.065351
 H         3.985888         1.809188        -0.444959
 H         4.088140        -0.940178        -0.254326
