19
Iteration:  1589charge 0 multiplicity 1
 C         4.416964         0.349886         2.585583
 C         3.257455         0.552637         1.635192
 C         1.766916         0.170962         1.834955
 C         1.321729         0.355530         0.403462
 C        -0.219782         0.079042         0.063685
 O         1.821330         1.753480         0.103465
 C         3.109602         1.522925         0.513744
 C         3.400432         0.027523         0.063648
 O         2.208684        -0.485296        -0.332906
 H         4.437676         1.290680         3.256105
 H         4.365346        -0.562579         3.163782
 H         5.313990         0.294579         2.084428
 H         1.847642        -0.849050         2.178224
 H         1.312087         0.712792         2.656573
 H        -0.155138        -0.150169        -1.018792
 H        -0.559375        -0.781477         0.588314
 H        -0.828771         0.905225         0.356479
 H         3.765141         2.331844         0.282085
 H         4.297871        -0.190435        -0.512870
