19
Iteration:  4176
 C         4.432905         0.731394         2.672885
 C         3.264704         0.618946         1.570999
 C         1.758815         0.595914         1.872658
 C         1.267837         0.433292         0.393485
 C        -0.225218         0.133807         0.056674
 O         1.906008         1.549309        -0.273201
 C         3.268176         1.314772         0.283760
 C         3.395078        -0.242800         0.329647
 O         2.071451        -0.797288        -0.022284
 H         4.192497         1.427157         3.441079
 H         4.692711        -0.243987         3.016992
 H         5.348934         1.079956         2.240000
 H         1.360571        -0.225381         2.493536
 H         1.357779         1.556584         2.158208
 H        -0.438175         0.083072        -1.024006
 H        -0.412881        -0.812009         0.559780
 H        -0.945936         0.854545         0.439509
 H         3.892996         2.027635        -0.287209
 H         4.283565        -0.830529         0.093387
