19
Iteration:   730charge 0 multiplicity 1
 C         4.429546         0.226717         2.537411
 C         3.388766         0.181278         1.455686
 C         1.902083        -0.457717         1.576421
 C         1.278376         0.406623         0.409231
 C        -0.191651         0.050401         0.005431
 O         1.626196         1.741475         0.741281
 C         3.030599         1.528899         0.833691
 C         3.453930         0.513764        -0.111922
 O         2.224862         0.058856        -0.616895
 H         4.087565         0.731959         3.391382
 H         4.771464        -0.776370         2.714384
 H         5.356782         0.696927         2.110347
 H         1.847722        -1.567393         1.676700
 H         1.346283        -0.044182         2.396311
 H        -0.483039         0.826500        -0.695500
 H        -0.112901        -0.950796        -0.401879
 H        -0.895065        -0.036350         0.864745
 H         3.541186         2.475984         0.906557
 H         4.337080         0.449603        -0.846397
