19
Iteration:  4475
 C         4.368477         0.701959         2.619830
 C         3.233277         0.645612         1.646395
 C         1.682041         0.601966         1.871474
 C         1.267101         0.358771         0.427514
 C        -0.214250         0.041135         0.138605
 O         1.979707         1.641684        -0.105796
 C         3.335320         1.259590         0.226562
 C         3.344855        -0.212303         0.221948
 O         2.133230        -0.675408        -0.162919
 H         4.637354         1.761172         2.712387
 H         4.232000         0.200800         3.599708
 H         5.277228         0.283384         2.159575
 H         1.516238        -0.337863         2.446167
 H         1.022564         1.455797         2.270474
 H        -0.300979        -0.452378        -0.929131
 H        -0.609870        -0.749617         0.759924
 H        -1.116369         0.661404         0.325536
 H         4.068217         1.852354        -0.261984
 H         4.188697        -0.911664        -0.045263
