19
Iteration:  2495
 C         4.311999         0.919031         2.596041
 C         3.246366         0.529697         1.590205
 C         1.755372         0.562036         1.918031
 C         1.289683         0.504522         0.383979
 C        -0.086786         0.245360         0.025934
 O         1.972543         1.566417        -0.198819
 C         3.230093         1.113424         0.215050
 C         3.306397        -0.392765         0.286539
 O         2.041450        -0.765394         0.015829
 H         4.270703         2.028803         2.814494
 H         3.948758         0.337986         3.571109
 H         5.342459         0.586644         2.317657
 H         1.561471        -0.353590         2.541636
 H         1.691483         1.492467         2.525994
 H        -0.143002        -0.858862         0.235016
 H        -0.639776         0.869583         0.669372
 H        -0.274616         0.439665        -1.081761
 H         3.996443         1.709435        -0.271355
 H         4.299114        -0.873426        -0.018391
