19
Iteration:  3059
 C         4.274147         0.699533         2.598387
 C         3.206112         0.680429         1.578933
 C         1.777728         0.510615         1.897945
 C         1.268229         0.315226         0.459527
 C        -0.174406         0.306783         0.039949
 O         1.920778         1.490417        -0.181321
 C         3.247566         1.319131         0.163056
 C         3.436374        -0.187255         0.327591
 O         2.149398        -0.822349        -0.004681
 H         4.474339         1.750836         2.976859
 H         3.891135         0.035316         3.426392
 H         5.192069         0.251894         2.137279
 H         1.556603        -0.239066         2.642439
 H         1.310895         1.394141         2.308573
 H        -0.734145         0.140918         0.953269
 H        -0.225737         1.320896        -0.462569
 H        -0.372920        -0.485729        -0.648783
 H         3.969888         2.035883        -0.395367
 H         4.306130        -0.660124        -0.177662
