19
Iteration:  1812charge 0 multiplicity 1
 C         4.332289         0.518290         2.585922
 C         3.230253         0.524888         1.621824
 C         1.811830         0.194124         1.906928
 C         1.318012         0.355075         0.444790
 C        -0.201879         0.261742         0.056041
 O         1.757092         1.627334         0.035939
 C         3.226662         1.458076         0.252699
 C         3.431080        -0.007225         0.151823
 O         2.220092        -0.643334        -0.199825
 H         4.071648         1.318344         3.346938
 H         4.497470        -0.492997         3.040173
 H         5.277464         1.034149         2.131294
 H         1.597637        -0.908802         2.117935
 H         1.320441         0.859904         2.664356
 H        -0.428468        -0.633076        -0.489378
 H        -0.707327         0.617777         0.995084
 H        -0.355148         1.123387        -0.554449
 H         3.921601         2.205850        -0.082865
 H         4.308528        -0.549049        -0.219192
