19
Iteration:  2457
 C         4.339871         0.897114         2.602158
 C         3.236498         0.648791         1.573410
 C         1.763944         0.524592         1.945415
 C         1.289352         0.351741         0.403989
 C        -0.204305         0.372638         0.007084
 O         1.949431         1.479968        -0.199040
 C         3.246329         1.130892         0.189241
 C         3.389270        -0.354247         0.404358
 O         2.115179        -0.794716        -0.072674
 H         4.325393         1.986832         2.842475
 H         4.292866         0.360363         3.550713
 H         5.353981         0.750029         2.185046
 H         1.510636        -0.339547         2.564587
 H         1.223836         1.400477         2.336668
 H        -0.675329        -0.588803        -0.145196
 H        -0.689662         0.796846         0.958568
 H        -0.478321         1.000618        -0.818980
 H         4.049554         1.707105        -0.351070
 H         4.243263        -0.932529         0.280017
