19
Iteration:  1580
 C         4.397360         0.416627         2.556098
 C         3.215715         0.463407         1.605638
 C         1.755219         0.106540         1.865172
 C         1.263801         0.323874         0.430508
 C        -0.106705         0.052366         0.090002
 O         1.811733         1.802659         0.131311
 C         3.201077         1.529116         0.475202
 C         3.429097         0.056223         0.164130
 O         2.153876        -0.454842        -0.404182
 H         4.493918         1.343113         3.211852
 H         4.317768        -0.529074         3.094688
 H         5.306730         0.320727         1.957262
 H         1.517399        -0.898361         2.277700
 H         1.193230         0.898141         2.403181
 H        -0.227534        -0.353734        -0.899645
 H        -0.495552        -0.648804         0.755509
 H        -0.762443         0.934652         0.104724
 H         3.976523         2.188107         0.241020
 H         4.280339        -0.202410        -0.453113
