19
Iteration:  1839
 C         4.389881         0.638192         2.633169
 C         3.288718         0.548330         1.615176
 C         1.837048         0.205596         1.923290
 C         1.298718         0.327457         0.451409
 C        -0.174685         0.299281         0.068160
 O         1.781332         1.613411        -0.037308
 C         3.163721         1.434715         0.355824
 C         3.430041        -0.132680         0.170254
 O         2.128142        -0.663687        -0.310279
 H         3.937556         1.103462         3.510731
 H         4.664402        -0.406327         2.833289
 H         5.236614         1.233310         2.569494
 H         1.641254        -0.798851         2.235097
 H         1.415339         0.877965         2.655435
 H        -0.384924        -0.233308        -0.881321
 H        -0.807977         0.071401         0.916789
 H        -0.428756         1.390268        -0.114746
 H         3.965607         2.155082         0.142583
 H         4.324322        -0.463155        -0.351995
