19
Iteration:  3072charge 0 multiplicity 1
 C         4.316846         0.747128         2.624337
 C         3.326496         0.651436         1.468285
 C         1.721499         0.493714         1.876580
 C         1.335657         0.322970         0.417320
 C        -0.126572         0.328103         0.030099
 O         1.834534         1.557836        -0.127325
 C         3.223545         1.279573         0.150766
 C         3.341494        -0.244387         0.308518
 O         2.172533        -0.832065         0.048751
 H         4.238310         1.720458         3.118468
 H         3.977855         0.002008         3.420684
 H         5.424470         0.545200         2.514037
 H         1.599646        -0.473097         2.311329
 H         1.346321         1.357560         2.346057
 H        -0.890694         0.270344         0.754730
 H        -0.445193         1.278898        -0.330686
 H        -0.369231        -0.330270        -0.785769
 H         3.982222         1.892282        -0.311591
 H         4.276391        -0.848782         0.275828
