19
Iteration:  3205charge 0 multiplicity 1
 C         4.313888         0.736246         2.611709
 C         3.295191         0.649363         1.572069
 C         1.745883         0.621724         1.846280
 C         1.302419         0.269381         0.433100
 C        -0.197191         0.135625         0.052168
 O         2.013472         1.631718        -0.193665
 C         3.291105         1.220637         0.215411
 C         3.349731        -0.222439         0.341254
 O         2.026442        -0.757148        -0.023533
 H         4.339725         1.815547         2.912581
 H         3.889558         0.164000         3.547613
 H         5.328520         0.350597         2.234366
 H         1.622330        -0.144655         2.625671
 H         1.373573         1.619663         2.120823
 H        -0.235632        -0.830180        -0.505470
 H        -0.792930         0.045021         0.936225
 H        -0.699867         0.901823        -0.593213
 H         4.046379         2.039528        -0.114384
 H         4.199128        -0.906797         0.012734
