19
Iteration:   803
 C         4.496658        -0.042890         2.404192
 C         3.349221         0.421603         1.509664
 C         1.953476        -0.205116         1.699278
 C         1.325110         0.351855         0.451588
 C        -0.097971         0.054678        -0.073886
 O         1.481651         1.786581         0.629536
 C         2.875626         1.676555         0.841763
 C         3.423828         0.484423        -0.015414
 O         2.285692        -0.161466        -0.544199
 H         4.301024        -0.092001         3.480602
 H         4.765249        -1.122443         2.042480
 H         5.444816         0.564254         2.173377
 H         1.845656        -1.301798         1.880243
 H         1.663259         0.325052         2.607933
 H        -0.839400        -0.099537         0.763821
 H        -0.458282         0.764484        -0.853567
 H         0.115390        -0.847943        -0.689486
 H         3.586921         2.498480         0.800630
 H         4.292565         0.429326        -0.795068
