19
Iteration:  4347charge 0 multiplicity 1
 C         4.333698         0.758795         2.681397
 C         3.294983         0.659123         1.540814
 C         1.786712         0.494831         1.932072
 C         1.276707         0.240092         0.481866
 C        -0.147526         0.214703         0.054160
 O         1.909699         1.624717        -0.157791
 C         3.235213         1.263122         0.065220
 C         3.364393        -0.232422         0.288590
 O         2.072412        -0.728886        -0.014507
 H         3.874075         1.347498         3.496819
 H         4.591658        -0.184150         3.191127
 H         5.208782         1.264998         2.218396
 H         1.532230        -0.311805         2.655848
 H         1.498832         1.552076         2.123117
 H        -0.150098         0.535249        -1.029610
 H        -0.281297        -0.837150        -0.070025
 H        -0.932335         0.754581         0.582028
 H         3.985510         1.783036        -0.456222
 H         4.146742        -1.040763         0.084850
