19
Iteration:  4186
 C         4.386131         0.771070         2.568766
 C         3.193737         0.580135         1.654875
 C         1.675432         0.565749         1.842706
 C         1.282986         0.445318         0.357629
 C        -0.142452         0.255054         0.133268
 O         1.919276         1.487013        -0.255373
 C         3.165188         1.293563         0.228181
 C         3.430176        -0.240315         0.346849
 O         2.174065        -0.803952        -0.020975
 H         4.313937         1.253426         3.503437
 H         4.586589        -0.209019         2.949411
 H         5.220244         1.082134         1.967943
 H         1.312868        -0.359256         2.257636
 H         1.276419         1.413672         2.341579
 H        -0.452266        -0.017384        -0.902435
 H        -0.428891        -0.608163         0.682851
 H        -0.662323         1.132515         0.527858
 H         3.982303         2.009447        -0.089477
 H         4.382567        -0.701550         0.158709
