19
Iteration:  3594charge 0 multiplicity 1
 C         4.328860         0.906179         2.715035
 C         3.347363         0.644493         1.587301
 C         1.827836         0.474666         1.907141
 C         1.259561         0.297870         0.480341
 C        -0.118902         0.344172        -0.061468
 O         1.844552         1.553048        -0.109743
 C         3.244968         1.169266         0.115883
 C         3.356428        -0.311284         0.309336
 O         2.044480        -0.816371        -0.054459
 H         4.328079         1.999509         2.997592
 H         4.249561         0.217763         3.566302
 H         5.403479         0.806643         2.404902
 H         1.877814        -0.499052         2.467520
 H         1.265576         1.311792         2.367926
 H         0.024962         0.132670        -1.119510
 H        -0.771400        -0.380246         0.298188
 H        -0.556892         1.291126         0.070985
 H         3.712941         1.952319        -0.560219
 H         4.202790        -0.957395         0.061568
