19
Iteration:  1865
 C         4.348051         0.643023         2.590714
 C         3.256661         0.412282         1.577732
 C         1.738095         0.296645         1.838401
 C         1.283691         0.378361         0.484886
 C        -0.163700         0.175304         0.075283
 O         1.907891         1.660628         0.040319
 C         3.213758         1.393465         0.321628
 C         3.445454        -0.164788         0.147076
 O         2.082442        -0.547980        -0.259949
 H         3.924987         1.256895         3.491714
 H         4.828062        -0.300884         2.892496
 H         5.226991         1.293824         2.384321
 H         1.334455        -0.569298         2.421956
 H         1.491547         1.211204         2.415120
 H        -0.255133         0.004147        -1.013079
 H        -0.413197        -0.780631         0.735120
 H        -0.885384         0.936435         0.430467
 H         4.001310         2.115734         0.181786
 H         4.354134        -0.600206        -0.292155
