19
Iteration:  4540
 C         4.388898         0.794667         2.661305
 C         3.334607         0.661882         1.524591
 C         1.855567         0.418382         1.988612
 C         1.266076         0.260704         0.483963
 C        -0.253674         0.381533        -0.006011
 O         1.840054         1.489560        -0.159975
 C         3.177264         1.321085         0.086245
 C         3.390327        -0.241320         0.341978
 O         2.129943        -0.796875        -0.040741
 H         3.794967         1.416958         3.360638
 H         4.501178        -0.243621         3.061959
 H         5.321338         1.393675         2.599727
 H         1.897650        -0.581836         2.337950
 H         1.238995         1.205230         2.393488
 H         0.004126         0.718428        -1.082479
 H        -0.651135        -0.572305        -0.182039
 H        -0.667284         1.071205         0.733276
 H         3.886660         2.090793        -0.284935
 H         4.162525        -0.777950        -0.125859
