19
Iteration:  3202
 C         4.323220         0.736753         2.633342
 C         3.285333         0.663960         1.578841
 C         1.757444         0.616427         1.819211
 C         1.274492         0.282213         0.457013
 C        -0.172536         0.126841         0.030476
 O         1.997926         1.637938        -0.170225
 C         3.315371         1.263374         0.168058
 C         3.362082        -0.219089         0.310587
 O         2.025262        -0.800674         0.007460
 H         4.381895         1.761756         2.995572
 H         3.897645         0.119218         3.472345
 H         5.309984         0.321617         2.304331
 H         1.601201        -0.110744         2.590327
 H         1.347719         1.538929         2.125115
 H        -0.339421        -0.808491        -0.511851
 H        -0.801230         0.132870         0.913560
 H        -0.651830         0.945363        -0.609526
 H         4.000871         2.055484        -0.088054
 H         4.060614        -1.023555         0.008407
