19
Iteration:   318
 C         4.499349        -0.088598         2.187323
 C         3.296163         0.284771         1.413321
 C         1.998630        -0.521709         1.437901
 C         1.327227         0.281499         0.404264
 C        -0.029207        -0.057626        -0.067121
 O         1.475946         1.738975         0.939412
 C         2.872292         1.729561         1.181843
 C         3.419302         0.716924         0.000503
 O         2.248079         0.243465        -0.654907
 H         4.289670        -0.361684         3.284341
 H         4.802975        -1.067306         1.809078
 H         5.251799         0.680834         2.078247
 H         2.225451        -1.604178         1.305759
 H         1.506880        -0.391152         2.365572
 H        -0.527356         0.778555        -0.589121
 H         0.150687        -0.902819        -0.745506
 H        -0.656933        -0.331935         0.800443
 H         3.320283         2.588406         1.653180
 H         4.352521         0.779372        -0.624422
