19
Iteration:  4225charge 0 multiplicity 1
 C         4.359215         0.918745         2.642461
 C         3.259166         0.666029         1.562109
 C         1.812396         0.387735         1.891892
 C         1.280691         0.280509         0.435293
 C        -0.181626         0.394912         0.055590
 O         1.889617         1.481226        -0.194894
 C         3.217615         1.264880         0.264782
 C         3.392947        -0.262783         0.324012
 O         2.097106        -0.825390        -0.111458
 H         4.139718         1.877588         3.226606
 H         4.373997         0.010583         3.347589
 H         5.418426         0.916007         2.230088
 H         1.751054        -0.667402         2.266774
 H         1.428317         1.149293         2.663323
 H        -0.359890         0.046431        -1.010369
 H        -0.839040        -0.172774         0.731765
 H        -0.492557         1.464285        -0.013343
 H         3.922719         2.043470        -0.123499
 H         4.103105        -0.994667         0.032131
