19
Iteration:  4332charge 0 multiplicity 1
 C         4.273477         0.675403         2.589500
 C         3.228742         0.753992         1.535660
 C         1.782213         0.599740         1.927193
 C         1.302717         0.329490         0.503140
 C        -0.113077         0.244777         0.023298
 O         1.857994         1.467475        -0.173494
 C         3.243775         1.293150         0.108275
 C         3.402434        -0.204377         0.305624
 O         2.155520        -0.818920        -0.006781
 H         4.101808         1.340649         3.415853
 H         4.274524        -0.358495         2.920955
 H         5.287826         0.916500         2.350070
 H         1.804177        -0.306436         2.588394
 H         1.121219         1.311382         2.505604
 H        -0.230133         0.817687        -0.909617
 H        -0.765248        -0.647146         0.012941
 H        -0.608732         0.808778         0.849321
 H         3.965281         2.077715        -0.287416
 H         4.309675        -0.674467         0.089688
