19
Iteration:   847charge 0 multiplicity 1
 C         4.481452         0.184242         2.479236
 C         3.292780         0.296912         1.548067
 C         1.899613        -0.281080         1.617646
 C         1.293849         0.376405         0.386041
 C        -0.136007         0.000074         0.057105
 O         1.610621         1.800546         0.611838
 C         3.021145         1.603338         0.795532
 C         3.460940         0.325017         0.013337
 O         2.217366        -0.030726        -0.664192
 H         4.216152         0.448674         3.477094
 H         4.793161        -0.939359         2.510547
 H         5.443420         0.685627         2.158193
 H         1.895070        -1.408872         1.545746
 H         1.317817         0.004801         2.483638
 H        -0.351981        -0.986236         0.525738
 H        -0.893692         0.675223         0.488981
 H        -0.375187         0.059523        -1.024381
 H         3.495310         2.532556         1.018821
 H         4.359587         0.563539        -0.538455
