19
Iteration:  4125charge 0 multiplicity 1
 C         4.298024         0.727930         2.635692
 C         3.262835         0.607083         1.511938
 C         1.842937         0.590473         1.836981
 C         1.293576         0.418658         0.441735
 C        -0.138538         0.187270         0.026370
 O         1.863195         1.543339        -0.202652
 C         3.253378         1.317141         0.165076
 C         3.343514        -0.203411         0.297003
 O         2.126344        -0.843923         0.089170
 H         4.303049         1.770884         3.100733
 H         4.025058        -0.127954         3.327674
 H         5.364313         0.488425         2.359160
 H         1.536162        -0.370184         2.367751
 H         1.337232         1.447388         2.385380
 H        -0.330750         0.482230        -0.988432
 H        -0.501495        -0.881859         0.266555
 H        -0.697232         0.825289         0.739062
 H         3.936231         2.125045        -0.041369
 H         4.246035        -0.720013        -0.112735
