19
Iteration:  2244charge 0 multiplicity 1
 C         4.330004         0.592515         2.621834
 C         3.194718         0.651230         1.607292
 C         1.742227         0.564725         1.906137
 C         1.270720         0.394536         0.454926
 C        -0.171451         0.296754         0.123851
 O         1.837347         1.463873        -0.313941
 C         3.281519         1.300347         0.101345
 C         3.398903        -0.185305         0.346116
 O         2.225013        -0.745544         0.000187
 H         4.192598         1.382849         3.361027
 H         4.351337        -0.405740         3.150353
 H         5.263557         0.786461         2.118527
 H         1.305817        -0.178019         2.637315
 H         1.513808         1.569061         2.343037
 H        -0.756284         1.007580         0.784081
 H        -0.245277         0.504170        -1.037376
 H        -0.614079        -0.702311         0.364619
 H         4.048122         1.931419        -0.444346
 H         4.302952        -0.794897         0.365778
