19
Iteration:  3987
 C         4.383307         0.620960         2.560404
 C         3.177901         0.638277         1.637865
 C         1.698696         0.605561         1.836059
 C         1.307190         0.409974         0.346412
 C        -0.105517         0.221074         0.179343
 O         1.947628         1.427622        -0.399250
 C         3.159591         1.422532         0.304758
 C         3.363836        -0.214631         0.442018
 O         2.179574        -0.783378        -0.055080
 H         4.301137         1.347633         3.363836
 H         4.352434        -0.304509         3.124086
 H         5.398276         0.818389         2.191753
 H         1.277048        -0.225537         2.335504
 H         1.266917         1.506802         2.278722
 H        -0.480860         0.097130        -0.816617
 H        -0.548100        -0.665377         0.809813
 H        -0.782120         1.056293         0.580402
 H         3.946133         2.217272         0.119911
 H         4.336895        -0.631383         0.154898
