19
Iteration:  1708charge 0 multiplicity 1
 C         4.374623         0.510044         2.615291
 C         3.282306         0.489128         1.569462
 C         1.864764         0.157651         1.901131
 C         1.269912         0.322809         0.382343
 C        -0.233110         0.260132         0.007284
 O         1.696557         1.651237         0.130979
 C         3.170889         1.444437         0.361815
 C         3.475742         0.014993         0.143483
 O         2.221963        -0.587721        -0.290819
 H         4.125089         1.262229         3.451912
 H         4.482348        -0.512856         3.034698
 H         5.252081         0.691092         2.038042
 H         1.793174        -0.763276         2.447957
 H         1.489819         0.958509         2.542871
 H        -0.630670         0.846086         0.909006
 H        -0.359528         0.999403        -0.765289
 H        -0.596866        -0.758542        -0.267042
 H         3.831289         2.312982         0.216197
 H         4.370529        -0.461892        -0.255334
