19
Iteration:  2012
 C         4.301996         0.720802         2.537597
 C         3.289375         0.555762         1.555184
 C         1.778256         0.331154         1.944209
 C         1.248862         0.300265         0.472364
 C        -0.212158         0.342011         0.046384
 O         1.890444         1.531713        -0.070731
 C         3.258024         1.365916         0.277420
 C         3.385454        -0.178104         0.275689
 O         2.162734        -0.687759        -0.200201
 H         3.981297         1.354584         3.342524
 H         4.503542        -0.236363         3.142831
 H         5.282420         1.075731         2.142984
 H         1.620491        -0.611615         2.515210
 H         1.319764         1.128689         2.578319
 H        -0.841158         0.082510         0.876708
 H        -0.397296         1.382939        -0.249995
 H        -0.375584        -0.383251        -0.777430
 H         4.078802         2.064375         0.125856
 H         4.298265        -0.642004        -0.106296
