19
Iteration:  3679charge 0 multiplicity 1
 C         4.331330         0.673852         2.616453
 C         3.225988         0.653846         1.600009
 C         1.688904         0.570116         1.831385
 C         1.264189         0.408852         0.388702
 C        -0.192323         0.185400         0.147056
 O         1.974379         1.469237        -0.368261
 C         3.265933         1.295601         0.267524
 C         3.385419        -0.189747         0.379767
 O         2.158390        -0.736480        -0.012146
 H         4.286875         1.524426         3.355906
 H         4.361048        -0.284362         3.162145
 H         5.208603         0.712082         1.952538
 H         1.315305        -0.204013         2.547861
 H         1.442389         1.519119         2.297091
 H        -0.403047         0.152704        -0.982710
 H        -0.412497        -0.693829         0.714769
 H        -0.797297         0.972808         0.671528
 H         3.889305         2.119653        -0.113285
 H         4.274190        -0.745858         0.268244
