19
Iteration:  4502charge 0 multiplicity 1
 C         4.349157         0.762404         2.528310
 C         3.235807         0.525638         1.598376
 C         1.718911         0.517234         1.899018
 C         1.326303         0.419720         0.398766
 C        -0.086886         0.192988         0.162309
 O         1.919361         1.547521        -0.236530
 C         3.244818         1.330987         0.273047
 C         3.343254        -0.236108         0.347437
 O         2.115553        -0.749481        -0.137562
 H         4.162043         1.733974         3.037064
 H         4.250100         0.049105         3.358658
 H         5.373635         0.635522         2.160971
 H         1.266089        -0.376216         2.428127
 H         1.329531         1.392831         2.492528
 H        -0.386449         0.185568        -0.828816
 H        -0.426176        -0.823044         0.609200
 H        -0.918672         0.729218         0.628653
 H         3.916259         2.229954         0.252890
 H         4.222273        -0.706893        -0.083811
