19
Iteration:  4849
 C         4.334176         0.856633         2.653712
 C         3.295339         0.636774         1.589846
 C         1.847756         0.389638         2.012671
 C         1.322245         0.295787         0.426577
 C        -0.170206         0.314300         0.019287
 O         1.862538         1.526103        -0.142723
 C         3.205628         1.257000         0.160572
 C         3.414972        -0.185222         0.282338
 O         2.036263        -0.797696        -0.106635
 H         4.515500         1.928743         2.938932
 H         4.155823         0.253339         3.577097
 H         5.293787         0.413357         2.249071
 H         1.731975        -0.503227         2.561522
 H         1.380569         1.267469         2.357494
 H        -0.143451        -0.058590        -0.995328
 H        -0.949348        -0.291921         0.607596
 H        -0.568750         1.319019        -0.193607
 H         3.971118         1.985535        -0.106299
 H         4.149404        -0.778583        -0.179068
