19
Iteration:  2428charge 0 multiplicity 1
 C         4.318155         0.763386         2.615090
 C         3.223102         0.639479         1.559819
 C         1.753900         0.564635         1.883614
 C         1.321909         0.369947         0.410835
 C        -0.183945         0.322133         0.049733
 O         1.996525         1.427984        -0.305986
 C         3.220697         1.243190         0.160070
 C         3.400710        -0.214719         0.347693
 O         2.054854        -0.814685         0.088223
 H         4.254420         1.625662         3.278324
 H         4.545126        -0.116040         3.320368
 H         5.295661         0.950425         2.138475
 H         1.381591        -0.278710         2.523700
 H         1.380535         1.556768         2.248026
 H        -0.531330        -0.730768        -0.039684
 H        -0.604116         0.796529         0.941751
 H        -0.494160         0.890320        -0.830225
 H         3.901358         2.012142        -0.101750
 H         4.313791        -0.811383         0.244754
