19
Iteration:  1243
 C         4.368675         0.335616         2.478985
 C         3.283755         0.363947         1.524104
 C         1.836049        -0.065134         1.776550
 C         1.243911         0.380347         0.440969
 C        -0.128899         0.054409        -0.000467
 O         1.709637         1.831991         0.442654
 C         3.142434         1.541436         0.648215
 C         3.447787         0.201722         0.003798
 O         2.196291        -0.345648        -0.476356
 H         4.187678         1.130318         3.142006
 H         4.622369        -0.611435         2.970924
 H         5.243698         0.617833         1.836811
 H         1.694545        -1.128850         1.885605
 H         1.513961         0.424104         2.695908
 H        -0.706449        -0.208268         0.896187
 H        -0.566749         0.938034        -0.427961
 H        -0.120051        -0.806274        -0.612847
 H         3.883935         2.351779         0.816571
 H         4.340193        -0.235444        -0.557705
