19
Iteration:  2348
 C         4.371783         0.783893         2.624705
 C         3.270054         0.628297         1.589930
 C         1.755517         0.500871         1.948303
 C         1.315007         0.392052         0.378676
 C        -0.246790         0.367765         0.080083
 O         1.890841         1.397995        -0.310266
 C         3.259290         1.311825         0.201411
 C         3.357978        -0.290528         0.355265
 O         2.142089        -0.762427        -0.011253
 H         4.265828         1.710459         3.240708
 H         4.308627        -0.066796         3.358624
 H         5.409839         0.740508         2.208559
 H         1.657226        -0.498699         2.383557
 H         1.225241         1.336400         2.447230
 H        -0.755818         0.055531         0.987265
 H        -0.584160         1.354157        -0.302430
 H        -0.410955        -0.280619        -0.791310
 H         3.982829         1.988662        -0.234834
 H         4.299708        -0.871118         0.267842
