19
Iteration:  1625charge 0 multiplicity 1
 C         4.302190         0.341011         2.601881
 C         3.245704         0.550404         1.547261
 C         1.856290         0.189202         1.948139
 C         1.320263         0.237830         0.460512
 C        -0.060113         0.189724         0.090713
 O         1.756279         1.709334         0.110099
 C         3.043986         1.493656         0.347713
 C         3.417231         0.067974         0.088497
 O         2.250207        -0.510729        -0.305773
 H         4.141954         1.011766         3.463441
 H         4.406962        -0.679115         3.049330
 H         5.321483         0.755866         2.254592
 H         1.716940        -0.905286         2.199218
 H         1.181405         0.884758         2.497166
 H        -0.174594         1.009279        -0.570601
 H        -0.416301        -0.659971        -0.463500
 H        -0.819414         0.551025         0.823018
 H         3.682929         2.286726        -0.079990
 H         4.267791        -0.283781        -0.488999
