19
Iteration:  4533
 C         4.338694         0.817487         2.633512
 C         3.334760         0.667516         1.539909
 C         1.849850         0.390229         1.932982
 C         1.299246         0.196622         0.450938
 C        -0.243119         0.368163        -0.010464
 O         1.846568         1.504944        -0.134921
 C         3.233015         1.267547         0.070455
 C         3.393557        -0.195811         0.333966
 O         2.123678        -0.742088         0.007530
 H         3.904145         1.359608         3.461078
 H         4.409631        -0.183079         3.042981
 H         5.360938         1.133650         2.408395
 H         1.590137        -0.600124         2.498004
 H         1.310555         1.192749         2.544738
 H        -0.279772         0.865204        -0.978989
 H        -0.752852        -0.667334        -0.024400
 H        -0.725966         1.121203         0.684554
 H         3.874529         2.096152        -0.335956
 H         4.234377        -0.696289        -0.110841
