19
Iteration:  1891
 C         4.340182         0.529871         2.602775
 C         3.216081         0.536856         1.628917
 C         1.799792         0.346286         1.901993
 C         1.289495         0.405425         0.428947
 C        -0.128021         0.136926         0.050648
 O         1.879572         1.698893        -0.019234
 C         3.205541         1.424207         0.287616
 C         3.357382        -0.131074         0.189522
 O         2.107162        -0.605933        -0.229552
 H         4.274363         1.246840         3.381752
 H         4.659185        -0.439469         3.152065
 H         5.332886         0.820328         2.079214
 H         1.680989        -0.634773         2.388861
 H         1.368338         1.076126         2.604691
 H        -0.570617         0.529270        -0.878441
 H        -0.118141        -0.893152        -0.042708
 H        -0.780970         0.367137         0.866380
 H         4.021710         2.089503        -0.083153
 H         4.292335        -0.642946        -0.009903
