19
Iteration:  3295
 C         4.296572         0.818861         2.687122
 C         3.289115         0.560599         1.560081
 C         1.830976         0.604139         1.939422
 C         1.261489         0.357000         0.446981
 C        -0.072517         0.299481        -0.006187
 O         1.875868         1.439316        -0.326806
 C         3.245558         1.260209         0.178179
 C         3.328363        -0.272430         0.294700
 O         2.061850        -0.762491         0.088290
 H         3.965087         1.513134         3.550786
 H         4.569475        -0.175732         3.192957
 H         5.278193         1.169547         2.262222
 H         1.406612        -0.227297         2.584836
 H         1.575280         1.588768         2.449334
 H        -0.059298         0.533723        -1.058600
 H        -0.360254        -0.791604         0.141881
 H        -0.719858         0.918641         0.548740
 H         3.936457         1.842930        -0.348704
 H         4.165520        -0.768297        -0.145442
