19
Iteration:  2293charge 0 multiplicity 1
 C         4.338722         0.885218         2.636449
 C         3.282299         0.435287         1.644910
 C         1.828991         0.527647         1.926631
 C         1.276283         0.437986         0.459081
 C        -0.184934         0.248981         0.019183
 O         1.956892         1.504671        -0.200209
 C         3.224787         1.153468         0.170728
 C         3.376233        -0.333405         0.305891
 O         2.038652        -0.635516        -0.078042
 H         4.237943         1.994345         2.725255
 H         4.171907         0.402295         3.596253
 H         5.350976         0.636156         2.238146
 H         1.331734        -0.220212         2.526597
 H         1.545150         1.422684         2.494681
 H        -0.946067         0.272649         0.783717
 H        -0.549444         0.916833        -0.720469
 H        -0.123612        -0.802095        -0.242832
 H         3.953994         1.832993        -0.103733
 H         4.309704        -0.655522        -0.234524
