19
Iteration:  4000
 C         4.293186         0.634147         2.567319
 C         3.180174         0.608366         1.601879
 C         1.680630         0.550569         1.874772
 C         1.277260         0.432060         0.385774
 C        -0.250357         0.224624         0.115575
 O         1.905824         1.454549        -0.342398
 C         3.300834         1.305799         0.262713
 C         3.463548        -0.115701         0.333659
 O         2.237883        -0.752716         0.061895
 H         4.187095         1.302584         3.387615
 H         4.450986        -0.390254         2.897018
 H         5.148974         0.869524         1.923575
 H         1.311656        -0.197732         2.577385
 H         1.414398         1.550201         2.233238
 H        -0.365394        -0.134660        -0.906888
 H        -0.518757        -0.567544         0.821487
 H        -0.662406         1.241800         0.359786
 H         3.935308         2.151217         0.039670
 H         4.377309        -0.761360         0.018370
