19
Iteration:   582charge 0 multiplicity 1
 C         4.460974         0.063285         2.406768
 C         3.307726         0.333798         1.441942
 C         2.002734        -0.476164         1.604317
 C         1.302532         0.253186         0.400907
 C        -0.110038         0.141293         0.006739
 O         1.513794         1.614286         0.761774
 C         2.938969         1.688266         0.909214
 C         3.419127         0.583118        -0.040246
 O         2.269140         0.076282        -0.678414
 H         4.067931         0.372722         3.378306
 H         4.728016        -1.003665         2.378577
 H         5.352809         0.597305         2.226178
 H         2.335269        -1.473917         1.432680
 H         1.413748        -0.260735         2.528173
 H        -0.610656         0.139711         0.990397
 H        -0.359785         1.104098        -0.442329
 H        -0.315993        -0.813633        -0.526469
 H         3.453421         2.648585         1.069252
 H         4.451765         0.607377        -0.549216
