19
Iteration:  4239
 C         4.328425         0.894479         2.703135
 C         3.334876         0.503073         1.628309
 C         1.819463         0.375154         1.901826
 C         1.287148         0.433020         0.433190
 C        -0.174028         0.295451         0.005253
 O         1.846177         1.525500        -0.140897
 C         3.252462         1.224223         0.125184
 C         3.360902        -0.262710         0.220153
 O         2.079475        -0.757426        -0.017503
 H         4.127240         1.994938         2.936408
 H         4.321618         0.263284         3.642147
 H         5.383420         0.976007         2.274259
 H         1.534754        -0.467025         2.498660
 H         1.296898         1.178583         2.365079
 H        -0.132684        -0.163419        -1.043361
 H        -0.691312        -0.255196         0.745311
 H        -0.573380         1.325769         0.041028
 H         4.041995         1.882508        -0.333886
 H         4.286388        -0.611913        -0.227367
