19
Iteration:  4107charge 0 multiplicity 1
 C         4.393131         0.775850         2.653031
 C         3.197401         0.667188         1.617933
 C         1.696311         0.435979         1.950888
 C         1.247125         0.274773         0.379738
 C        -0.254813         0.286374         0.141004
 O         1.934323         1.436144        -0.328025
 C         3.266489         1.309106         0.228339
 C         3.474491        -0.148719         0.340763
 O         2.154918        -0.710404        -0.072151
 H         4.579485         1.806310         2.936905
 H         4.387396         0.069274         3.468608
 H         5.377421         0.482143         2.228653
 H         1.424508        -0.396630         2.534825
 H         1.251850         1.369679         2.262160
 H        -0.484060         0.496215        -0.913101
 H        -0.702763        -0.698609         0.319632
 H        -0.852696         1.079059         0.620120
 H         4.021483         1.856312        -0.262646
 H         4.249087        -0.910958         0.029916
