19
Iteration:  4845
 C         4.329883         0.852380         2.620267
 C         3.286956         0.597855         1.594963
 C         1.813924         0.415978         1.961550
 C         1.304937         0.312854         0.438337
 C        -0.149553         0.279028         0.032654
 O         1.877857         1.535280        -0.111572
 C         3.205930         1.219667         0.141505
 C         3.403552        -0.188197         0.306531
 O         2.055473        -0.735226        -0.107063
 H         4.460635         1.883696         2.905544
 H         4.149050         0.268819         3.517390
 H         5.293371         0.456521         2.297371
 H         1.808898        -0.526929         2.581683
 H         1.414293         1.366767         2.411353
 H        -0.228682        -0.095309        -1.010560
 H        -0.812074        -0.359744         0.670068
 H        -0.652424         1.212395        -0.257377
 H         4.029362         1.943895        -0.087566
 H         4.172908        -0.854445        -0.111941
