19
Iteration:  1326charge 0 multiplicity 1
 C         4.374951         0.300154         2.603417
 C         3.330159         0.473670         1.529679
 C         1.936195        -0.019141         1.882409
 C         1.302956         0.309567         0.417161
 C        -0.156746         0.155126         0.042464
 O         1.694439         1.763279         0.306586
 C         3.059089         1.551032         0.538280
 C         3.409191         0.174854         0.015947
 O         2.206064        -0.372787        -0.506748
 H         4.015082         0.627098         3.673630
 H         4.533942        -0.786364         2.690220
 H         5.320800         0.788149         2.640746
 H         1.871844        -1.124480         2.070678
 H         1.415476         0.540054         2.705411
 H        -0.077340        -0.616555        -0.727308
 H        -0.771960        -0.327218         0.880313
 H        -0.609963         1.126244        -0.165985
 H         3.616475         2.490531         0.345458
 H         4.125104        -0.308077        -0.698629
