19
Iteration:  2255
 C         4.259130         0.667555         2.568394
 C         3.243167         0.681658         1.556588
 C         1.781119         0.571167         1.856977
 C         1.302792         0.399418         0.401851
 C        -0.206094         0.276138         0.109913
 O         1.918496         1.496601        -0.189148
 C         3.254839         1.226579         0.138833
 C         3.413279        -0.208106         0.409287
 O         2.153587        -0.756200         0.002431
 H         4.273806         1.479980         3.298424
 H         4.223043        -0.314664         3.127804
 H         5.228599         0.642648         2.086690
 H         1.730069        -0.304291         2.572362
 H         1.233706         1.488642         2.189036
 H        -0.893666         0.864439         0.798757
 H        -0.521384         0.653839        -0.964818
 H        -0.320364        -0.826729         0.143563
 H         4.011335         1.939509        -0.331408
 H         4.224125        -0.868444         0.131935
