19
Iteration:  1884charge 0 multiplicity 1
 C         4.345785         0.557232         2.609684
 C         3.210716         0.508018         1.599970
 C         1.806848         0.369340         1.928696
 C         1.315093         0.419649         0.331646
 C        -0.123088         0.098457         0.067428
 O         1.869255         1.748264         0.020812
 C         3.270460         1.374273         0.350273
 C         3.292372        -0.155263         0.152245
 O         2.109406        -0.623594        -0.225275
 H         4.109595         1.412371         3.323119
 H         4.631371        -0.433896         2.870239
 H         5.168989         1.020326         2.142338
 H         1.742908        -0.640854         2.330546
 H         1.292927         1.091866         2.555173
 H        -0.295396         0.535798        -0.914949
 H        -0.166250        -1.034848         0.239019
 H        -0.786220         0.552521         0.890698
 H         3.941703         2.113734         0.040971
 H         4.198976        -0.686477        -0.120467
