19
Iteration:   203charge 0 multiplicity 1
 C         4.526908        -0.084274         2.363335
 C         3.403859         0.225184         1.330573
 C         2.102285        -0.628643         1.436032
 C         1.281076         0.298073         0.465177
 C        -0.168084        -0.008054        -0.098662
 O         1.445142         1.587640         1.072969
 C         2.891874         1.601677         1.083869
 C         3.378189         0.915066        -0.088685
 O         2.269609         0.401499        -0.746599
 H         4.265450        -0.076397         3.383125
 H         4.658970        -1.172635         2.232390
 H         5.481991         0.436088         2.234482
 H         2.193754        -1.633336         1.057637
 H         1.671919        -0.426781         2.501228
 H        -0.476226        -0.995938         0.292691
 H        -0.990141         0.671950         0.059533
 H         0.052405        -0.112469        -1.158624
 H         3.253206         2.535164         1.438115
 H         4.366358         1.143438        -0.576370
