19
Iteration:  3699charge 0 multiplicity 1
 C         4.204644         0.749442         2.655140
 C         3.308836         0.654436         1.477461
 C         1.803642         0.595286         1.973913
 C         1.340185         0.349610         0.453450
 C        -0.081034         0.205417         0.014809
 O         1.872318         1.533081        -0.175438
 C         3.275366         1.265968         0.099084
 C         3.379186        -0.248518         0.301996
 O         2.073162        -0.781918         0.047141
 H         4.116998         1.685182         3.209858
 H         4.122609        -0.078765         3.365121
 H         5.236859         0.745654         2.292473
 H         1.481810        -0.333187         2.449997
 H         1.458731         1.460103         2.543117
 H        -0.091031         0.443039        -1.139003
 H        -0.528300        -0.795360         0.164620
 H        -0.820689         0.981825         0.459164
 H         3.977553         1.967014        -0.357251
 H         4.068544        -0.981810        -0.076743
