19
Iteration:   680charge 0 multiplicity 1
 C         4.484281        -0.005698         2.440580
 C         3.323474         0.338851         1.513437
 C         1.946050        -0.336485         1.615274
 C         1.245921         0.273681         0.423269
 C        -0.248033         0.105936         0.012062
 O         1.516161         1.702836         0.679160
 C         2.972160         1.663676         0.848923
 C         3.461492         0.608348        -0.060869
 O         2.380642        -0.054738        -0.644096
 H         4.280183         0.448208         3.512804
 H         4.777112        -1.063239         2.375657
 H         5.361701         0.465001         2.072398
 H         2.137151        -1.375241         1.351440
 H         1.605512        -0.323024         2.706777
 H        -0.289237        -0.323864        -0.995068
 H        -0.704555        -0.430818         0.868921
 H        -0.641945         1.143195         0.008550
 H         3.451952         2.565889         1.181009
 H         4.359819         0.752746        -0.581466
