19
Iteration:  3174
 C         4.295830         0.662987         2.633393
 C         3.306552         0.647099         1.598258
 C         1.828865         0.569169         1.915882
 C         1.266402         0.425185         0.509275
 C        -0.088193         0.292057        -0.045356
 O         1.842160         1.448639        -0.267556
 C         3.183302         1.234500         0.108543
 C         3.412838        -0.149291         0.357291
 O         2.121775        -0.766795         0.065444
 H         4.149691         1.625779         3.153709
 H         3.974750        -0.169417         3.292858
 H         5.353592         0.494666         2.415962
 H         1.693248        -0.292482         2.618624
 H         1.409351         1.446284         2.493730
 H        -0.282123        -0.753799        -0.345928
 H        -0.857566         0.451028         0.715734
 H        -0.400965         0.918110        -0.850871
 H         3.864733         1.953798        -0.459673
 H         4.126068        -0.791480        -0.159749
