19
Iteration:  1999charge 0 multiplicity 1
 C         4.296969         0.759449         2.626906
 C         3.196326         0.480495         1.588620
 C         1.799470         0.314693         1.878921
 C         1.343582         0.400424         0.422243
 C        -0.173346         0.245963         0.048797
 O         1.908072         1.610199         0.034719
 C         3.260652         1.283978         0.261091
 C         3.452264        -0.184195         0.187291
 O         2.064126        -0.648417        -0.181792
 H         4.172799         1.599730         3.170513
 H         4.553303        -0.131411         3.166602
 H         5.163686         0.962677         1.966709
 H         1.510695        -0.619065         2.390253
 H         1.492729         1.279220         2.332041
 H        -0.767597         0.207182         0.949604
 H        -0.529656         1.055473        -0.494768
 H        -0.376308        -0.583454        -0.593891
 H         3.796635         2.132431        -0.053946
 H         4.236969        -0.925046        -0.076716
