19
Iteration:  3791charge 0 multiplicity 1
 C         4.376829         0.747413         2.626980
 C         3.252932         0.624172         1.643875
 C         1.764531         0.528158         1.884149
 C         1.237463         0.303412         0.368176
 C        -0.235367         0.242710         0.076894
 O         1.871474         1.456377        -0.307305
 C         3.282453         1.321552         0.239581
 C         3.384650        -0.176307         0.405176
 O         2.175353        -0.703764        -0.070391
 H         4.213034         1.467776         3.437041
 H         4.476607        -0.186098         3.179029
 H         5.403245         0.886417         2.254618
 H         1.415283        -0.313330         2.481799
 H         1.451412         1.476229         2.369867
 H        -0.315026        -0.124287        -0.914339
 H        -0.630255        -0.620447         0.664778
 H        -0.755751         1.128450         0.298741
 H         3.915860         2.025168        -0.253538
 H         4.233908        -0.901160         0.147017
