19
Iteration:  4409
 C         4.367314         0.769337         2.593183
 C         3.220924         0.692391         1.577456
 C         1.805343         0.429807         1.828700
 C         1.319165         0.247441         0.374033
 C        -0.203265         0.318102         0.094284
 O         1.841779         1.522216        -0.146399
 C         3.225053         1.329609         0.236513
 C         3.389909        -0.239839         0.343428
 O         2.153729        -0.774242        -0.074577
 H         4.162910         1.694477         3.143861
 H         4.489323        -0.015508         3.345100
 H         5.352143         0.898432         2.123342
 H         1.685103        -0.499235         2.435039
 H         1.200878         1.190054         2.453600
 H        -0.443883         0.119874        -1.039553
 H        -0.744968        -0.342346         0.829323
 H        -0.470248         1.398883         0.325911
 H         4.039504         1.934513        -0.110038
 H         4.225854        -0.939387         0.021012
