19
Iteration:  2498charge 0 multiplicity 1
 C         4.290883         0.915206         2.592372
 C         3.243448         0.553783         1.604340
 C         1.767911         0.565370         1.913252
 C         1.304640         0.495195         0.369965
 C        -0.102545         0.241231         0.021885
 O         1.964932         1.561883        -0.167489
 C         3.245806         1.104721         0.175190
 C         3.313911        -0.366099         0.327726
 O         2.032467        -0.784873        -0.010374
 H         4.384910         1.980392         2.951430
 H         4.033724         0.324185         3.427379
 H         5.305046         0.551721         2.363323
 H         1.606293        -0.272044         2.550964
 H         1.728353         1.451237         2.503627
 H        -0.156950        -0.795415         0.244196
 H        -0.650091         0.937229         0.657475
 H        -0.290322         0.350339        -1.043958
 H         4.048446         1.761341        -0.309849
 H         4.176782        -0.863953         0.009450
