19
Iteration:   645charge 0 multiplicity 1
 C         4.496667        -0.049081         2.288540
 C         3.226728         0.319912         1.551426
 C         1.829101        -0.304940         1.642740
 C         1.337721         0.296839         0.386552
 C        -0.002915        -0.030920         0.022118
 O         1.538509         1.776842         0.640834
 C         2.930259         1.639744         0.870727
 C         3.444455         0.534926         0.094061
 O         2.280437         0.108402        -0.646898
 H         4.569692        -0.015326         3.483034
 H         4.908385        -0.999637         2.076065
 H         5.154826         0.757422         1.933966
 H         2.051218        -1.389253         1.564069
 H         1.283393        -0.104726         2.586493
 H        -0.265291        -1.061050        -0.099994
 H        -0.544862         0.236920         0.940224
 H        -0.434402         0.590138        -0.759609
 H         3.482310         2.534984         1.173623
 H         4.454661         0.426715        -0.500528
