19
Iteration:  2551
 C         4.312639         0.592491         2.590646
 C         3.206307         0.665862         1.609092
 C         1.709863         0.634700         1.819080
 C         1.318732         0.442012         0.373714
 C        -0.112168         0.322886         0.097052
 O         1.867743         1.450121        -0.322441
 C         3.272661         1.301942         0.138647
 C         3.362557        -0.258314         0.429238
 O         2.156766        -0.823255         0.092532
 H         4.128471         1.435242         3.346984
 H         4.654504        -0.293320         3.225226
 H         5.277249         0.998460         2.190237
 H         1.488774        -0.218158         2.478798
 H         1.301532         1.538996         2.283084
 H        -0.519734        -0.205499         0.972000
 H        -0.643740         1.269899        -0.107909
 H        -0.158914        -0.420693        -0.724447
 H         3.865253         2.127399        -0.438166
 H         4.284581        -0.713950         0.325932
