19
Iteration:  2320charge 0 multiplicity 1
 C         4.313394         0.893937         2.564383
 C         3.210678         0.593833         1.599653
 C         1.769334         0.445857         1.877056
 C         1.310807         0.256057         0.449607
 C        -0.161949         0.382448         0.070631
 O         1.992458         1.591843        -0.142210
 C         3.256693         1.246490         0.194039
 C         3.353931        -0.325209         0.254526
 O         2.078624        -0.832756        -0.032514
 H         4.333581         1.961073         2.722914
 H         4.201501         0.344786         3.532248
 H         5.234128         0.595977         2.085523
 H         1.562997        -0.405623         2.591675
 H         1.088253         1.233373         2.263278
 H        -0.933904         0.366426         0.876228
 H        -0.402990         1.296987        -0.552953
 H        -0.274168        -0.569464        -0.485063
 H         4.111194         1.959590        -0.073073
 H         4.229065        -0.883019         0.281871
