19
Iteration:  4321
 C         4.294209         0.635217         2.562264
 C         3.230220         0.758627         1.550750
 C         1.792201         0.549152         1.909547
 C         1.313175         0.350685         0.411904
 C        -0.171666         0.300023         0.113728
 O         1.870249         1.362251        -0.274547
 C         3.189858         1.396115         0.237728
 C         3.418363        -0.134225         0.339174
 O         2.191738        -0.826654         0.043817
 H         4.170498         1.292937         3.399655
 H         4.104543        -0.329258         3.000233
 H         5.236451         0.616113         2.072879
 H         1.456604        -0.430901         2.316011
 H         1.489789         1.534848         2.382322
 H        -0.235607         0.764464        -0.890820
 H        -0.508819        -0.768975        -0.015382
 H        -0.769512         0.991268         0.735326
 H         3.904414         2.092966        -0.309847
 H         4.285145        -0.631580         0.068565
