19
Iteration:  4815
 C         4.331506         0.773911         2.540824
 C         3.185165         0.497624         1.640684
 C         1.703486         0.553618         1.861639
 C         1.292675         0.441737         0.379454
 C        -0.129402         0.060522         0.163579
 O         2.020823         1.667506        -0.211574
 C         3.290040         1.312667         0.288507
 C         3.351257        -0.261990         0.273987
 O         2.029128        -0.722811        -0.105759
 H         4.297063         1.785389         3.052469
 H         4.378918         0.000391         3.362118
 H         5.324308         0.734594         1.983940
 H         1.459253        -0.221553         2.565814
 H         1.424804         1.437403         2.384283
 H        -0.185229        -0.454211        -0.781215
 H        -0.267661        -0.865161         0.894383
 H        -0.973632         0.767926         0.179203
 H         4.209555         2.010125         0.272399
 H         4.153264        -0.866803        -0.060753
