19
Iteration:  1676
 C         4.375752         0.582152         2.598295
 C         3.176052         0.378051         1.621778
 C         1.769183         0.082789         1.901766
 C         1.290319         0.422388         0.384994
 C        -0.045403         0.149360         0.085264
 O         1.817146         1.726548         0.066607
 C         3.234731         1.397366         0.418638
 C         3.403372        -0.002359         0.117784
 O         2.094571        -0.475811        -0.342886
 H         4.242051         1.215181         3.556407
 H         4.914552        -0.346791         2.797994
 H         5.135334         1.140190         2.168197
 H         1.581100        -0.939208         2.193268
 H         1.302428         0.749188         2.618811
 H        -0.701169         1.027255         0.362795
 H        -0.260080        -0.017728        -0.935864
 H        -0.509002        -0.651854         0.700179
 H         3.953105         2.193428         0.355014
 H         4.220276        -0.510292        -0.375636
