19
Iteration:  2848charge 0 multiplicity 1
 C         4.362625         0.725283         2.665120
 C         3.314003         0.674307         1.579890
 C         1.720841         0.613629         1.945781
 C         1.298184         0.267354         0.334295
 C        -0.299464         0.299534         0.071646
 O         1.949566         1.454704        -0.376809
 C         3.247088         1.302883         0.153428
 C         3.428610        -0.241835         0.351925
 O         2.111705        -0.781715         0.093160
 H         4.783681         1.668686         3.085693
 H         4.139804         0.193996         3.568856
 H         5.343305         0.255122         2.456584
 H         1.371644        -0.267840         2.527812
 H         1.035860         1.436068         2.184467
 H        -0.654734        -0.692870        -0.296555
 H        -0.784771         0.574942         0.987901
 H        -0.611699         1.086907        -0.702130
 H         4.107124         2.037456        -0.042181
 H         4.348776        -0.786203         0.102681
