19
Iteration:  3548charge 0 multiplicity 1
 C         4.442682         0.838520         2.593627
 C         3.121141         0.505575         1.664536
 C         1.653842         0.556032         1.817269
 C         1.327001         0.475487         0.313060
 C        -0.120499         0.182671         0.164325
 O         1.958047         1.535244        -0.336266
 C         3.302324         1.275615         0.264173
 C         3.325892        -0.288213         0.415223
 O         2.100965        -0.769324        -0.042127
 H         4.362665         1.894023         3.018370
 H         4.304784         0.132556         3.454289
 H         5.443777         0.627492         2.134801
 H         1.033011        -0.318423         2.133166
 H         1.251293         1.457562         2.325226
 H        -0.670927         0.203742        -0.780407
 H        -0.140449        -0.802955         0.499082
 H        -0.625697         0.865299         0.887108
 H         4.100600         1.950551        -0.078136
 H         4.288209        -0.841126         0.232934
