19
Iteration:  4917charge 0 multiplicity 1
 C         4.362531         0.818715         2.608502
 C         3.227949         0.608861         1.648067
 C         1.755114         0.586946         1.824093
 C         1.300338         0.459677         0.374173
 C        -0.147013         0.055882         0.170106
 O         1.979442         1.521119        -0.174688
 C         3.347942         1.219598         0.248054
 C         3.338486        -0.318629         0.303353
 O         1.978878        -0.655241        -0.131502
 H         4.045068         1.663776         3.291190
 H         4.530637        -0.063656         3.294053
 H         5.350550         1.045368         2.154758
 H         1.341307        -0.257110         2.369180
 H         1.430549         1.616152         2.116149
 H        -0.497217         0.116219        -0.918854
 H        -0.127887        -0.903400         0.544108
 H        -0.944439         0.643608         0.662612
 H         4.000217         2.034760        -0.078368
 H         4.232409        -0.947609        -0.088820
