19
Iteration:  1001
 C         4.396685         0.101655         2.509614
 C         3.292730         0.460312         1.495345
 C         1.946435        -0.247802         1.816794
 C         1.351323         0.336136         0.457448
 C        -0.070434         0.127447         0.027975
 O         1.556080         1.750370         0.467136
 C         2.973997         1.617627         0.714224
 C         3.443942         0.363254        -0.096769
 O         2.228730        -0.190037        -0.546601
 H         4.140416         0.490801         3.477476
 H         4.644917        -0.985766         2.395567
 H         5.375189         0.677799         2.394141
 H         2.198871        -1.322007         1.719614
 H         1.371703         0.022884         2.689504
 H        -0.583354         0.853686         0.617806
 H        -0.165088         0.405462        -1.017656
 H        -0.446059        -0.895077         0.225630
 H         3.351494         2.678810         0.792639
 H         4.447839         0.010797        -0.548103
