19
Iteration:  3632
 C         4.281192         0.749240         2.571288
 C         3.220930         0.579513         1.569272
 C         1.811502         0.592761         1.899101
 C         1.312078         0.414438         0.446309
 C        -0.200323         0.178418         0.026950
 O         1.931115         1.496999        -0.218177
 C         3.300965         1.355016         0.208613
 C         3.408656        -0.302893         0.342200
 O         2.078686        -0.732954         0.008826
 H         3.945264         1.453121         3.312602
 H         4.362366        -0.201850         3.130073
 H         5.214872         0.973480         2.066992
 H         1.560341        -0.282455         2.485198
 H         1.371889         1.477490         2.389812
 H        -0.069034        -0.263776        -0.990222
 H        -0.712885        -0.466289         0.823161
 H        -0.832885         1.144638        -0.066831
 H         4.038250         2.106659        -0.078368
 H         4.265769        -0.990432         0.078365
