19
Iteration:   466
 C         4.537004        -0.111344         2.258549
 C         3.314077         0.347123         1.496040
 C         1.956203        -0.444106         1.607016
 C         1.332729         0.282262         0.350031
 C        -0.147369         0.004968        -0.015002
 O         1.503879         1.738149         0.737094
 C         2.823959         1.709032         1.090472
 C         3.422203         0.608864         0.082154
 O         2.312400         0.163961        -0.702851
 H         4.415867        -0.147652         3.327673
 H         4.857614        -1.101130         1.764412
 H         5.414841         0.614377         2.019648
 H         2.394974        -1.375997         1.213566
 H         1.567537        -0.416275         2.653425
 H        -0.280531        -0.692605        -0.853104
 H        -0.606722        -0.485715         0.869392
 H        -0.572687         1.006978        -0.191352
 H         3.327404         2.668982         1.169831
 H         4.460549         0.752873        -0.372010
