19
Iteration:  3143
 C         4.370092         0.761184         2.557822
 C         3.214874         0.637635         1.649260
 C         1.676194         0.555277         1.846023
 C         1.257052         0.361851         0.372372
 C        -0.178953         0.267769         0.072834
 O         1.976562         1.553655        -0.226642
 C         3.274403         1.243512         0.243794
 C         3.408448        -0.242090         0.356009
 O         2.103241        -0.810319        -0.015774
 H         4.064550         1.468598         3.356690
 H         4.583385        -0.098583         3.134534
 H         5.282107         1.129324         2.137405
 H         1.504921        -0.386288         2.460018
 H         1.122269         1.500185         2.172562
 H        -0.441280        -0.812763         0.276092
 H        -0.659560         0.802713         0.972585
 H        -0.431984         0.671951        -0.907461
 H         4.141191         1.706874        -0.358193
 H         4.212384        -0.924879         0.021716
