19
Iteration:  1113charge 0 multiplicity 1
 C         4.417577         0.152801         2.498937
 C         3.348334         0.375847         1.466480
 C         1.849984        -0.152134         1.920657
 C         1.312168         0.280919         0.481820
 C        -0.059191         0.089539        -0.002201
 O         1.575890         1.763479         0.401218
 C         3.039336         1.676230         0.587766
 C         3.409807         0.378010        -0.062587
 O         2.243730        -0.244148        -0.450068
 H         4.227548         0.450476         3.507184
 H         4.421701        -1.034908         2.490600
 H         5.480925         0.582525         2.152741
 H         1.807897        -1.191456         2.172013
 H         1.323226         0.371043         2.725584
 H        -0.043341        -0.365305        -1.007765
 H        -0.758438        -0.387092         0.685898
 H        -0.462754         1.068261        -0.184709
 H         3.634949         2.602518         0.568134
 H         4.350214        -0.015256        -0.446780
