19
Iteration:  3575charge 0 multiplicity 1
 C         4.306682         0.929405         2.521080
 C         3.178978         0.549751         1.609673
 C         1.760252         0.468121         1.935363
 C         1.309074         0.311048         0.422339
 C        -0.206282         0.332003         0.035796
 O         1.971670         1.448582        -0.193409
 C         3.326589         1.262588         0.258606
 C         3.378992        -0.283977         0.351143
 O         2.118709        -0.748840        -0.063459
 H         4.348109         1.957614         2.828450
 H         4.025552         0.333584         3.395760
 H         5.240897         0.538099         2.149455
 H         1.391324        -0.332803         2.565817
 H         1.304039         1.383261         2.333020
 H        -0.477909         0.312090        -1.008971
 H        -0.669463        -0.638768         0.434817
 H        -0.585680         1.253319         0.461111
 H         4.051554         1.982277        -0.118817
 H         4.198289        -0.846556         0.027097
