19
Iteration:  3517charge 0 multiplicity 1
 C         4.271653         0.720160         2.633086
 C         3.254824         0.695926         1.543643
 C         1.783730         0.711234         1.944571
 C         1.268580         0.277453         0.591891
 C        -0.171197         0.132737        -0.002786
 O         1.959936         1.524292        -0.229908
 C         3.325266         1.237701         0.076348
 C         3.361245        -0.232116         0.279031
 O         2.070238        -0.743874         0.007588
 H         4.114948         1.505886         3.426478
 H         4.036020        -0.225893         3.126600
 H         5.357924         0.747630         2.464889
 H         1.525132        -0.188727         2.582121
 H         1.411620         1.708801         2.234453
 H        -0.062117         0.415216        -1.049033
 H        -0.583367        -0.778128         0.156391
 H        -0.877760         0.739250         0.526727
 H         4.084965         1.906593        -0.371470
 H         4.300548        -0.861130         0.235042
