19
Iteration:   590
 C         4.485251         0.011123         2.454269
 C         3.324407         0.275222         1.452350
 C         1.988580        -0.517579         1.678857
 C         1.331272         0.251416         0.460335
 C        -0.068132         0.130293         0.000654
 O         1.507810         1.682413         0.741562
 C         2.915063         1.696934         0.798504
 C         3.365746         0.652357        -0.039483
 O         2.260140         0.102765        -0.691692
 H         4.108698         0.326633         3.521688
 H         4.825247        -0.980747         2.407557
 H         5.395086         0.614854         2.282590
 H         2.073735        -1.636387         1.605402
 H         1.624093        -0.251901         2.671586
 H        -0.734292        -0.264375         0.764713
 H        -0.327718         1.037993        -0.479566
 H        -0.115805        -0.607675        -0.801724
 H         3.466283         2.631372         0.942128
 H         4.198762         0.583181        -0.801003
