19
Iteration:  2146charge 0 multiplicity 1
 C         4.353032         0.826090         2.615150
 C         3.248103         0.543723         1.586714
 C         1.762870         0.330658         1.949899
 C         1.292158         0.332714         0.409272
 C        -0.205250         0.396426         0.039982
 O         1.845384         1.535851        -0.120023
 C         3.236845         1.235677         0.153863
 C         3.421971        -0.225937         0.276305
 O         2.191332        -0.752722        -0.084841
 H         4.389219         1.885158         2.886252
 H         4.207911         0.160502         3.522395
 H         5.268991         0.526784         2.127441
 H         1.365979        -0.480117         2.561240
 H         1.350299         1.266291         2.318322
 H        -0.324210         1.108513        -0.765306
 H        -0.738089        -0.567924         0.076490
 H        -0.700953         1.043047         0.735663
 H         3.889405         2.023811         0.063981
 H         4.309281        -0.803399        -0.059070
