19
Iteration:  3925
 C         4.335335         0.969307         2.706610
 C         3.320020         0.528199         1.566951
 C         1.876194         0.396217         1.931632
 C         1.348946         0.342537         0.494499
 C        -0.070111         0.280997        -0.053515
 O         1.847014         1.536807        -0.190925
 C         3.242345         1.196363         0.220829
 C         3.253775        -0.267075         0.196905
 O         1.993271        -0.760862        -0.009481
 H         4.123799         2.022572         2.800780
 H         4.045379         0.384347         3.598492
 H         5.384941         0.740694         2.502485
 H         1.518076        -0.496495         2.500115
 H         1.567753         1.374076         2.361948
 H         0.001810         0.584250        -1.064863
 H        -0.341726        -0.699389        -0.024701
 H        -0.648809         1.010681         0.495621
 H         3.946419         2.015347        -0.011232
 H         4.193434        -0.745072        -0.151965
