19
Iteration:  4644
 C         4.285183         0.604526         2.634639
 C         3.296194         0.737176         1.488775
 C         1.916263         0.480046         1.948976
 C         1.244300         0.305474         0.485944
 C        -0.130371         0.273682        -0.035394
 O         1.785550         1.490295        -0.110632
 C         3.171205         1.351038         0.150229
 C         3.421893        -0.149206         0.242772
 O         2.170176        -0.783801         0.016136
 H         4.382652         1.573840         3.103544
 H         3.908022        -0.034876         3.394218
 H         5.271591         0.297552         2.374078
 H         1.762634        -0.380743         2.670852
 H         1.443435         1.322894         2.512608
 H        -0.335895        -0.059298        -1.035345
 H        -0.791946        -0.253701         0.692565
 H        -0.642097         1.212128         0.025869
 H         3.764812         2.147860        -0.380641
 H         4.408930        -0.393424        -0.268984
