19
Iteration:  1772
 C         4.392423         0.472497         2.590978
 C         3.267105         0.462914         1.591674
 C         1.668219         0.339165         1.862177
 C         1.279867         0.365065         0.414511
 C        -0.087567        -0.008622         0.103836
 O         1.838636         1.766888         0.093189
 C         3.263362         1.421003         0.381901
 C         3.376493        -0.011853         0.137257
 O         2.117626        -0.519491        -0.331676
 H         4.455040         1.435673         3.077948
 H         4.437160        -0.326582         3.346578
 H         5.406067         0.358696         2.187986
 H         1.413836        -0.627544         2.275662
 H         1.253627         1.117866         2.479059
 H        -0.588364        -0.883854         0.600690
 H        -0.705111         0.792201         0.437047
 H        -0.349037        -0.116000        -0.946453
 H         4.027036         2.224407         0.101829
 H         4.346801        -0.424984        -0.168715
