19
Iteration:  4654
 C         4.345102         0.694242         2.661706
 C         3.329762         0.712576         1.517783
 C         1.796581         0.492547         1.943902
 C         1.315343         0.305045         0.545962
 C        -0.177686         0.264684        -0.033981
 O         1.763952         1.464849        -0.080436
 C         3.202999         1.380827         0.153385
 C         3.396607        -0.133176         0.205912
 O         2.160116        -0.779359        -0.042652
 H         4.615483         1.556511         3.228256
 H         3.862048         0.026212         3.326335
 H         5.224900         0.178543         2.342102
 H         1.851846        -0.549321         2.341970
 H         1.293296         1.281926         2.526576
 H        -0.227515        -0.032013        -1.049680
 H        -0.873687        -0.397199         0.536710
 H        -0.313850         1.315519         0.035755
 H         3.946053         1.837652        -0.507311
 H         4.247944        -0.810721        -0.176237
