19
Iteration:  4587charge 0 multiplicity 1
 C         4.357698         0.777572         2.536743
 C         3.240022         0.566767         1.575322
 C         1.688440         0.510292         1.868530
 C         1.255955         0.340410         0.430556
 C        -0.218936         0.073233         0.153089
 O         1.985009         1.698848        -0.187834
 C         3.353761         1.282095         0.304553
 C         3.352474        -0.318334         0.342800
 O         2.079397        -0.668633        -0.175292
 H         4.031427         1.356325         3.378444
 H         4.848048        -0.118087         2.860342
 H         5.074961         1.434581         2.044144
 H         1.344022        -0.416518         2.376177
 H         1.414702         1.480106         2.312351
 H        -0.386801        -0.022549        -0.868798
 H        -0.377106        -0.924402         0.648257
 H        -0.655670         0.926441         0.693411
 H         4.049731         1.998592        -0.064624
 H         4.192053        -1.003483         0.450091
