19
Iteration:   760charge 0 multiplicity 1
 C         4.449406         0.122868         2.396381
 C         3.239344         0.324163         1.557564
 C         1.980423        -0.369034         1.675436
 C         1.328345         0.358298         0.348606
 C        -0.126954         0.070788         0.067052
 O         1.545362         1.753621         0.584452
 C         2.976896         1.586478         0.912395
 C         3.423188         0.445548         0.012947
 O         2.299386        -0.002717        -0.670518
 H         4.351018         0.353844         3.444510
 H         4.644878        -1.031147         2.352667
 H         5.277256         0.744773         1.895447
 H         2.116995        -1.481116         1.653227
 H         1.227465        -0.124208         2.426198
 H        -0.521525         1.130599         0.224666
 H        -0.246650        -0.229309        -1.004431
 H        -0.485722        -0.690427         0.799077
 H         3.323732         2.625042         1.006646
 H         4.460064         0.230130        -0.491763
