19
Iteration:   919
 C         4.474782         0.160881         2.523318
 C         3.355323         0.335053         1.450007
 C         1.919403        -0.306670         1.704225
 C         1.244225         0.334353         0.468862
 C        -0.100168         0.053335        -0.040929
 O         1.614711         1.788738         0.624342
 C         3.042883         1.635308         0.704409
 C         3.433229         0.432719        -0.069901
 O         2.178598        -0.148875        -0.558604
 H         4.084914         0.634314         3.548344
 H         4.664772        -0.856199         2.850425
 H         5.389784         0.638490         2.204607
 H         1.684329        -1.379749         1.661180
 H         1.561988         0.054082         2.730132
 H        -0.106798         0.112971        -1.167829
 H        -0.553020        -0.952861         0.187033
 H        -0.742214         0.860791         0.326283
 H         3.552185         2.502883         1.135692
 H         4.248034         0.414522        -0.833909
