19
Iteration:  3187charge 0 multiplicity 1
 C         4.302031         0.681034         2.724187
 C         3.289539         0.681339         1.472223
 C         1.765164         0.591654         1.922140
 C         1.312150         0.360545         0.430738
 C        -0.161391         0.209168        -0.007608
 O         1.876536         1.562508        -0.177580
 C         3.257032         1.334012         0.102534
 C         3.358555        -0.284176         0.238731
 O         2.099739        -0.804465         0.113960
 H         4.490670         1.631461         3.245089
 H         4.088401        -0.006539         3.484628
 H         5.242127         0.436458         2.295151
 H         1.475989        -0.350632         2.457664
 H         1.436054         1.592170         2.348086
 H        -0.195398        -0.769477        -0.515850
 H        -0.934732         0.345958         0.813788
 H        -0.136581         0.966491        -0.751650
 H         4.012218         1.825356        -0.501864
 H         4.339416        -0.709779         0.116777
