19
Iteration:  4308charge 0 multiplicity 1
 C         4.365416         0.592910         2.619725
 C         3.212823         0.629793         1.626000
 C         1.716644         0.503766         1.856075
 C         1.285065         0.322198         0.426116
 C        -0.190751         0.295458         0.113283
 O         1.893392         1.460378        -0.422801
 C         3.175372         1.402628         0.185680
 C         3.437115        -0.102228         0.352287
 O         2.205443        -0.756598         0.081634
 H         4.555632         1.512555         3.191676
 H         4.319095        -0.280757         3.293880
 H         5.308893         0.524755         2.083309
 H         1.548085        -0.226101         2.648344
 H         1.212858         1.378412         2.215329
 H        -0.467397         0.503299        -0.875610
 H        -0.584757        -0.779551         0.380555
 H        -0.770893         0.805812         0.888138
 H         3.859110         2.230458        -0.081828
 H         4.338663        -0.691525         0.123833
