19
Iteration:  1915
 C         4.392369         0.467463         2.592373
 C         3.275943         0.601520         1.608842
 C         1.766913         0.378637         1.907034
 C         1.294252         0.315080         0.404499
 C        -0.200283         0.213235         0.058551
 O         1.758601         1.552152        -0.113731
 C         3.205316         1.475074         0.322039
 C         3.415404        -0.079090         0.147413
 O         2.227553        -0.603855        -0.113761
 H         4.477105         1.283627         3.357563
 H         4.143280        -0.395044         3.366846
 H         5.416103         0.199775         2.280039
 H         1.683589        -0.567000         2.430028
 H         1.261871         1.089797         2.557017
 H        -0.464760         1.165842        -0.438713
 H        -0.464942        -0.494307        -0.725583
 H        -0.853277         0.234009         0.975898
 H         3.791473         2.321969         0.120150
 H         4.351145        -0.494239        -0.210653
