19
Iteration:  2772charge 0 multiplicity 1
 C         4.409559         0.906698         2.647545
 C         3.274312         0.635994         1.599662
 C         1.723142         0.543850         1.874405
 C         1.284774         0.361923         0.383296
 C        -0.208133         0.368610        -0.024667
 O         1.898773         1.439321        -0.232494
 C         3.316793         1.150796         0.200218
 C         3.375086        -0.346206         0.343865
 O         2.053380        -0.797989         0.040762
 H         4.135900         1.672126         3.421757
 H         4.561295         0.030882         3.258325
 H         5.398832         1.364636         2.381430
 H         1.422285        -0.233730         2.564145
 H         1.394463         1.469796         2.325937
 H        -0.542427        -0.627249        -0.342956
 H        -0.730862         0.574048         0.877667
 H        -0.389916         1.079741        -0.849669
 H         4.070443         1.766963        -0.367283
 H         4.256005        -0.856212         0.071360
