19
Iteration:  2691
 C         4.258869         0.792852         2.631447
 C         3.253564         0.632993         1.555503
 C         1.829340         0.687862         1.898292
 C         1.309041         0.359213         0.489259
 C        -0.138160         0.150333         0.029662
 O         1.981673         1.515457        -0.229977
 C         3.274658         1.250512         0.188919
 C         3.324911        -0.385697         0.276975
 O         2.047199        -0.687905         0.015786
 H         4.220447         1.765796         3.030294
 H         3.848970         0.070271         3.365765
 H         5.157696         0.371403         2.247752
 H         1.484870        -0.116854         2.603154
 H         1.545924         1.715306         2.252207
 H        -0.379913        -0.645741         0.735363
 H        -0.773921         1.056385         0.212076
 H         0.000566        -0.240980        -0.988414
 H         3.912656         2.040879        -0.302960
 H         4.095337        -1.139447        -0.002996
