19
Iteration:  2710
 C         4.380113         0.721039         2.744137
 C         3.262746         0.611494         1.563844
 C         1.749422         0.682534         1.907081
 C         1.287974         0.438036         0.400452
 C        -0.148889         0.157195         0.087564
 O         1.909914         1.526382        -0.296349
 C         3.336068         1.171302         0.074935
 C         3.329675        -0.238848         0.385821
 O         2.010012        -0.745603        -0.001055
 H         4.214734         1.749743         3.182775
 H         4.347290        -0.097696         3.516490
 H         5.385574         0.751235         2.268968
 H         1.469547        -0.153607         2.582872
 H         1.379888         1.661318         2.257336
 H        -0.345975        -0.948125         0.333111
 H        -0.922842         0.819642         0.408242
 H        -0.235301         0.110556        -1.081896
 H         4.266222         1.724214        -0.304880
 H         4.271359        -0.649416         0.192669
