19
Iteration:  1967charge 0 multiplicity 1
 C         4.333627         0.698081         2.649458
 C         3.276454         0.486118         1.620250
 C         1.836331         0.305391         1.922144
 C         1.265497         0.451539         0.422397
 C        -0.202278         0.129142         0.086243
 O         1.938574         1.626174        -0.092412
 C         3.262241         1.353828         0.337189
 C         3.381713        -0.152767         0.170805
 O         2.032985        -0.593599        -0.254682
 H         4.387433         1.654317         3.060680
 H         4.196233         0.090870         3.567138
 H         5.346537         0.408077         2.231652
 H         1.528677        -0.660809         2.375882
 H         1.535374         1.151462         2.592374
 H        -0.958536         0.678459         0.632989
 H        -0.355842         0.361484        -0.920952
 H        -0.342113        -0.952645         0.172852
 H         3.900489         2.155536         0.081414
 H         4.291250        -0.681486        -0.181713
