19
Iteration:  2643charge 0 multiplicity 1
 C         4.413918         0.866272         2.656713
 C         3.245723         0.715563         1.651755
 C         1.741177         0.413648         1.882107
 C         1.272609         0.362003         0.410940
 C        -0.207707         0.390652         0.072363
 O         1.910767         1.378743        -0.313771
 C         3.293226         1.221277         0.220011
 C         3.428424        -0.237896         0.406033
 O         2.035153        -0.798764        -0.101945
 H         4.449126         1.984733         2.869337
 H         4.166855         0.286226         3.565432
 H         5.343083         0.475265         2.171858
 H         1.652729        -0.507691         2.470254
 H         1.251584         1.245956         2.396944
 H        -0.838188         0.300724         1.000847
 H        -0.254937         1.412663        -0.313132
 H        -0.358419        -0.378793        -0.748182
 H         3.928786         2.098171         0.076897
 H         4.193272        -1.011407         0.121779
