19
Iteration:  2992
 C         4.289464         0.773623         2.610747
 C         3.302447         0.592545         1.543831
 C         1.714110         0.572079         1.954757
 C         1.359839         0.362807         0.535904
 C        -0.160194         0.197990         0.024710
 O         1.962385         1.487721        -0.207237
 C         3.296386         1.312065         0.153096
 C         3.352122        -0.294214         0.310315
 O         2.022715        -0.716629        -0.067248
 H         4.149750         1.758247         3.192373
 H         4.269321        -0.011256         3.407121
 H         5.377692         0.752782         2.345441
 H         1.311951        -0.255674         2.560844
 H         1.433007         1.547399         2.373623
 H        -0.862627        -0.039035         0.848940
 H        -0.458399         1.120426        -0.563149
 H        -0.270115        -0.625582        -0.706218
 H         4.104729         1.942950        -0.129149
 H         4.252247        -0.760523         0.025171
