19
Iteration:  3576
 C         4.315469         0.929184         2.528781
 C         3.185185         0.561610         1.598341
 C         1.765376         0.466197         1.935714
 C         1.308414         0.308955         0.423315
 C        -0.205130         0.332472         0.026262
 O         1.966050         1.445609        -0.179491
 C         3.321994         1.265456         0.250276
 C         3.376965        -0.285393         0.353438
 O         2.114293        -0.752654        -0.068140
 H         4.318715         1.952103         2.845803
 H         4.000167         0.346855         3.406748
 H         5.256058         0.548120         2.164091
 H         1.396556        -0.318193         2.570702
 H         1.320723         1.375930         2.361664
 H        -0.478351         0.314142        -1.031395
 H        -0.689841        -0.659270         0.436929
 H        -0.574973         1.294164         0.448051
 H         4.072826         1.941785        -0.117035
 H         4.197451        -0.859479         0.048508
