19
Iteration:  1392
 C         4.451017         0.383459         2.568830
 C         3.272372         0.437440         1.585377
 C         1.868577        -0.045138         1.829095
 C         1.296900         0.286410         0.423078
 C        -0.205723         0.218228         0.033434
 O         1.716985         1.644229         0.262736
 C         3.068761         1.549003         0.522144
 C         3.416300         0.164729         0.033974
 O         2.222546        -0.340230        -0.403796
 H         4.379028         1.205129         3.428411
 H         4.438409        -0.551023         3.127308
 H         5.385038         0.596475         2.063128
 H         1.747060        -1.145065         1.943359
 H         1.357211         0.399530         2.718597
 H        -0.315106         1.089208        -0.622565
 H        -0.380485        -0.557512        -0.773929
 H        -0.830728         0.085110         0.867630
 H         3.754287         2.333011         0.450019
 H         4.328979        -0.254842        -0.327259
