19
Iteration:  2442charge 0 multiplicity 1
 C         4.371758         0.860422         2.611876
 C         3.230209         0.655842         1.642199
 C         1.691858         0.560125         1.813120
 C         1.312726         0.349989         0.409610
 C        -0.098139         0.400166         0.134365
 O         1.840065         1.464713        -0.276457
 C         3.330824         1.277744         0.198616
 C         3.328962        -0.339134         0.398015
 O         2.118081        -0.895283        -0.005721
 H         4.237620         1.773456         3.180907
 H         4.210586         0.002845         3.197528
 H         5.303622         0.758561         2.051369
 H         1.494278        -0.335416         2.391559
 H         1.245452         1.430190         2.254337
 H        -0.409452        -0.626953        -0.145703
 H        -0.812238         0.795064         0.776910
 H        -0.004186         1.008652        -0.804933
 H         4.116747         1.840882        -0.281894
 H         4.185844        -0.974783        -0.030002
