19
Iteration:  3605charge 0 multiplicity 1
 C         4.341610         0.906746         2.752967
 C         3.305956         0.579953         1.592163
 C         1.872074         0.448278         1.915310
 C         1.305507         0.364185         0.529024
 C        -0.092229         0.294218        -0.087282
 O         1.841485         1.548356        -0.157718
 C         3.218450         1.231059         0.056791
 C         3.327496        -0.281641         0.214337
 O         2.030242        -0.792076         0.070875
 H         4.120110         1.837249         3.358257
 H         4.179140         0.114150         3.500075
 H         5.325160         0.772082         2.253854
 H         1.519237        -0.461016         2.495650
 H         1.422722         1.264688         2.533752
 H         0.150158        -0.000262        -1.106993
 H        -0.742391        -0.401428         0.337428
 H        -0.484419         1.247923        -0.181377
 H         4.054812         1.792948        -0.554393
 H         4.076812        -0.810142        -0.352607
