19
Iteration:  3467charge 0 multiplicity 1
 C         4.360100         0.719037         2.626384
 C         3.166381         0.740179         1.587297
 C         1.716322         0.534213         1.980645
 C         1.308956         0.348602         0.426256
 C        -0.200512         0.244100         0.032355
 O         1.974022         1.452778        -0.292419
 C         3.308788         1.288164         0.128559
 C         3.388708        -0.272151         0.380639
 O         2.086569        -0.729765        -0.012609
 H         4.070496         1.496272         3.353431
 H         4.565549        -0.171909         3.271118
 H         5.293577         1.123776         2.188998
 H         1.526766        -0.291518         2.641660
 H         1.317177         1.499446         2.270972
 H        -0.273471        -0.113841        -1.043306
 H        -0.737874        -0.524190         0.789701
 H        -0.807747         1.142679         0.196775
 H         4.109750         1.920424        -0.378682
 H         4.301374        -0.904073         0.206251
