19
Iteration:  2572charge 0 multiplicity 1
 C         4.297700         0.724851         2.614298
 C         3.252235         0.758405         1.600609
 C         1.772214         0.623872         1.938176
 C         1.321365         0.350179         0.422291
 C        -0.257404         0.174997         0.041662
 O         2.003614         1.523116        -0.278974
 C         3.324012         1.203420         0.130952
 C         3.372917        -0.282697         0.342790
 O         2.037543        -0.733894         0.036926
 H         4.138782         1.264523         3.572541
 H         4.433905        -0.425291         2.838035
 H         5.296991         1.047270         2.259127
 H         1.383009        -0.204457         2.573153
 H         1.311286         1.564904         2.286358
 H        -0.828288        -0.088816         0.924472
 H        -0.526617         1.166970        -0.332285
 H        -0.399089        -0.632431        -0.701019
 H         4.234383         1.845893        -0.174364
 H         4.221028        -0.827170         0.101507
