19
Iteration:  1753charge 0 multiplicity 1
 C         4.339496         0.450291         2.559278
 C         3.209522         0.544458         1.561520
 C         1.854435         0.209471         1.924398
 C         1.289946         0.391982         0.401304
 C        -0.203268         0.087589         0.055938
 O         1.838070         1.773383         0.086948
 C         3.178588         1.459800         0.345949
 C         3.432046        -0.072081         0.165833
 O         2.202315        -0.508010        -0.265173
 H         4.428172         1.452268         3.242612
 H         4.102690        -0.357711         3.290513
 H         5.207874         0.099216         2.058000
 H         1.554242        -0.741245         2.337116
 H         1.386420         1.034835         2.465741
 H        -0.576619        -0.516532         0.961983
 H        -1.042287         0.803039        -0.007914
 H        -0.113717        -0.628689        -0.860417
 H         3.857946         2.356027         0.088753
 H         4.261716        -0.610151        -0.329681
