19
Iteration:   736charge 0 multiplicity 1
 C         4.491117         0.217204         2.520449
 C         3.309654         0.191171         1.416312
 C         1.862097        -0.430831         1.539924
 C         1.271673         0.338523         0.379893
 C        -0.192535         0.084507         0.043181
 O         1.636091         1.746898         0.738144
 C         3.019028         1.568609         0.841644
 C         3.480860         0.497084        -0.067311
 O         2.246706         0.026959        -0.615305
 H         4.138423         0.697211         3.515037
 H         4.776243        -0.844146         2.847678
 H         5.320338         0.800417         2.102558
 H         1.672756        -1.505978         1.573289
 H         1.466324         0.028866         2.502147
 H        -0.677282         0.859783        -0.616210
 H         0.051380        -0.844825        -0.555686
 H        -0.707617        -0.265360         0.948091
 H         3.521186         2.547573         0.930905
 H         4.324406         0.558319        -0.727010
