19
Iteration:   193
 C         4.441800        -0.161021         2.279115
 C         3.423420         0.225483         1.293837
 C         2.144657        -0.581644         1.466475
 C         1.304045         0.271083         0.507330
 C        -0.043973        -0.046814        -0.103315
 O         1.430824         1.577642         1.053217
 C         2.852769         1.735508         1.127291
 C         3.376338         0.825519        -0.066440
 O         2.211976         0.443776        -0.719495
 H         3.925794         0.140668         3.198235
 H         4.772008        -1.209152         2.277017
 H         5.395114         0.446908         2.232478
 H         2.224861        -1.625210         1.185923
 H         1.801487        -0.732191         2.575376
 H        -0.691441        -0.869462         0.251346
 H        -0.536038         0.930751        -0.088748
 H         0.191742        -0.246943        -1.157776
 H         3.262946         2.668584         1.460748
 H         4.284909         0.959466        -0.737875
