19
Iteration:  2104
 C         4.397437         0.661924         2.657943
 C         3.259968         0.552598         1.599580
 C         1.767713         0.475266         1.897815
 C         1.297668         0.403380         0.392560
 C        -0.252917         0.191059         0.067743
 O         1.863472         1.613734        -0.208947
 C         3.255859         1.305447         0.261678
 C         3.423871        -0.174172         0.242914
 O         2.131121        -0.687850        -0.068152
 H         4.514152         1.640453         3.286189
 H         4.099620        -0.131647         3.377994
 H         5.320447         0.282485         2.179611
 H         1.483188        -0.385582         2.473207
 H         1.482158         1.307569         2.497705
 H        -0.395709        -0.418050        -0.868818
 H        -0.596125        -0.362638         0.946921
 H        -0.830000         1.087446        -0.140290
 H         3.910179         2.047928        -0.151265
 H         4.223468        -0.887102        -0.048324
