19
Iteration:  3201charge 0 multiplicity 1
 C         4.325961         0.735458         2.641868
 C         3.279641         0.667686         1.578708
 C         1.763286         0.613828         1.811986
 C         1.264286         0.288767         0.462841
 C        -0.165212         0.125481         0.022195
 O         1.991944         1.637957        -0.163215
 C         3.322608         1.279939         0.152741
 C         3.367024        -0.222119         0.299821
 O         2.026734        -0.813115         0.017387
 H         4.404573         1.746335         3.025170
 H         3.918729         0.113276         3.436138
 H         5.287911         0.321894         2.336381
 H         1.582205        -0.115028         2.588112
 H         1.330840         1.535721         2.136077
 H        -0.369953        -0.800805        -0.511837
 H        -0.813038         0.156975         0.920865
 H        -0.613351         0.947128        -0.602643
 H         3.991710         2.045614        -0.085696
 H         4.014171        -1.042646         0.014915
