19
Iteration:  2934
 C         4.267329         0.859816         2.574004
 C         3.192990         0.601984         1.570650
 C         1.781868         0.514106         1.937582
 C         1.348105         0.364270         0.424834
 C        -0.115178         0.325749         0.075320
 O         1.954980         1.460689        -0.255641
 C         3.265043         1.183143         0.212524
 C         3.337810        -0.281199         0.373602
 O         2.097578        -0.740747        -0.049102
 H         3.970929         1.532385         3.385357
 H         4.603133        -0.106301         2.899574
 H         5.043445         1.338531         1.961909
 H         1.342566        -0.401013         2.419067
 H         1.271879         1.416616         2.377576
 H        -0.649044        -0.403537         0.735739
 H        -0.497423         1.298604         0.368854
 H        -0.292663         0.074979        -1.027272
 H         4.128675         1.848732        -0.042298
 H         4.223356        -0.964734         0.337834
