19
Iteration:  3904charge 0 multiplicity 1
 C         4.313471         0.936323         2.590508
 C         3.228828         0.636148         1.585002
 C         1.717497         0.377687         1.922636
 C         1.304561         0.354821         0.466226
 C        -0.257676         0.341621        -0.008775
 O         1.890827         1.489423        -0.099512
 C         3.377225         1.229901         0.214998
 C         3.429397        -0.304715         0.316904
 O         2.136242        -0.774869        -0.103644
 H         4.186910         2.016617         2.780050
 H         4.331448         0.408946         3.578825
 H         5.238916         0.667300         2.056839
 H         1.566617        -0.593639         2.466590
 H         1.424475         1.268932         2.499988
 H        -0.391542         0.429614        -1.080228
 H        -0.731745        -0.550579         0.174666
 H        -0.732274         1.087702         0.614535
 H         3.946777         1.937216        -0.409000
 H         4.288817        -0.999027         0.087001
