19
Iteration:  3707charge 0 multiplicity 1
 C         4.263725         0.827532         2.751125
 C         3.336901         0.688737         1.550265
 C         1.792425         0.560851         1.912920
 C         1.267295         0.344348         0.519860
 C        -0.075778         0.222728        -0.063442
 O         1.901386         1.529262        -0.104065
 C         3.284315         1.237106         0.050094
 C         3.323054        -0.283574         0.178012
 O         2.033762        -0.809572         0.029181
 H         4.113214         1.787710         3.237499
 H         4.068707        -0.037880         3.422067
 H         5.266355         0.722969         2.285800
 H         1.669573        -0.313361         2.572047
 H         1.527437         1.455687         2.526054
 H         0.074303         0.477774        -1.106980
 H        -0.458503        -0.814158         0.123898
 H        -0.680543         0.957086         0.531280
 H         3.833241         1.977253        -0.504852
 H         4.236677        -0.930641        -0.105520
