19
Iteration:  2605charge 0 multiplicity 1
 C         4.316669         0.859855         2.600700
 C         3.261898         0.508009         1.608003
 C         1.780190         0.550991         1.857637
 C         1.314069         0.442973         0.444143
 C        -0.096884         0.230989         0.053112
 O         1.868947         1.572961        -0.201313
 C         3.310301         1.132352         0.165490
 C         3.383449        -0.373097         0.325586
 O         2.031666        -0.720176         0.003436
 H         4.075494         1.693746         3.299860
 H         4.454675         0.053460         3.388720
 H         5.365638         1.045041         2.322249
 H         1.115996        -0.161881         2.387616
 H         1.611683         1.574452         2.233572
 H        -0.841083         0.195055         0.822374
 H        -0.481891         1.106953        -0.490816
 H        -0.198752        -0.563225        -0.680105
 H         3.935437         2.021505        -0.177592
 H         4.234924        -0.868062        -0.029252
