19
Iteration:   853
 C         4.491110         0.180973         2.457187
 C         3.261614         0.286054         1.497374
 C         1.896450        -0.288962         1.598464
 C         1.358062         0.439234         0.347751
 C        -0.159054         0.004884         0.084378
 O         1.618092         1.776054         0.583753
 C         2.987440         1.591616         0.854889
 C         3.432635         0.336490         0.041401
 O         2.242365        -0.080948        -0.651851
 H         4.143730         0.564621         3.504788
 H         4.694228        -0.806225         2.758337
 H         5.326979         0.771173         2.168062
 H         2.110623        -1.326439         1.425056
 H         1.427989        -0.113051         2.612307
 H        -0.458825        -1.017335         0.338381
 H        -0.663056         0.726984         0.780220
 H        -0.451493         0.304689        -0.922198
 H         3.542293         2.528971         1.079430
 H         4.254163         0.647300        -0.663604
