19
Iteration:  4524charge 0 multiplicity 1
 C         4.288411         0.791732         2.629353
 C         3.261879         0.668247         1.557923
 C         1.790214         0.380430         1.877814
 C         1.269208         0.327920         0.457367
 C        -0.168593         0.309865         0.025158
 O         1.868250         1.500578        -0.132479
 C         3.238420         1.269211         0.151359
 C         3.441725        -0.165710         0.240256
 O         2.136728        -0.770052         0.004028
 H         4.164232         1.557920         3.432333
 H         4.480962        -0.163555         3.129290
 H         5.226235         0.975171         2.081736
 H         1.641394        -0.500975         2.563440
 H         1.523469         1.287583         2.466164
 H        -0.379219         0.742802        -0.895423
 H        -0.854892        -0.572631         0.189793
 H        -0.713944         0.955882         0.732938
 H         3.979554         1.856288        -0.389876
 H         4.316373        -0.837009         0.039821
