19
Iteration:  1944
 C         4.333460         0.556981         2.595523
 C         3.240649         0.590844         1.559274
 C         1.749034         0.337061         1.873512
 C         1.328536         0.330107         0.442737
 C        -0.111642         0.208754         0.112728
 O         1.796092         1.626548        -0.013222
 C         3.213070         1.419312         0.227294
 C         3.408579        -0.109180         0.227974
 O         2.179634        -0.666145        -0.194042
 H         4.501138         1.431560         3.128672
 H         3.949029        -0.007670         3.425446
 H         5.317033         0.080061         2.315730
 H         1.561617        -0.635996         2.408283
 H         1.259066         1.173003         2.419030
 H        -0.516174         1.231359         0.223845
 H        -0.250240         0.073453        -0.912158
 H        -0.714838        -0.471209         0.678663
 H         3.885862         2.215959        -0.129684
 H         4.374352        -0.484973        -0.145934
