19
Iteration:   179charge 0 multiplicity 1
 C         4.455175        -0.172762         2.253181
 C         3.344852         0.286333         1.380066
 C         2.167221        -0.566866         1.390614
 C         1.393335         0.267986         0.434388
 C         0.090170        -0.023059        -0.122802
 O         1.402603         1.633436         1.055811
 C         2.829275         1.672674         1.120020
 C         3.356418         0.811090        -0.041915
 O         2.125423         0.384148        -0.641159
 H         4.224219        -0.155973         3.259318
 H         4.643277        -1.274067         2.124952
 H         5.299618         0.396055         2.099931
 H         2.408681        -1.540687         0.934440
 H         1.677717        -0.452088         2.354708
 H        -0.502344        -0.356253         0.717377
 H        -0.339427         0.903613        -0.411205
 H         0.127564        -0.711857        -0.954199
 H         3.173571         2.555863         1.615032
 H         4.103178         1.072934        -0.746990
