19
Iteration:   683charge 0 multiplicity 1
 C         4.466998         0.021347         2.462626
 C         3.300593         0.334754         1.505530
 C         1.980830        -0.336674         1.616643
 C         1.278133         0.273322         0.419587
 C        -0.233997         0.103374         0.007623
 O         1.493441         1.693785         0.709554
 C         3.003678         1.649146         0.819769
 C         3.446404         0.598167        -0.075754
 O         2.371497        -0.041937        -0.622134
 H         4.241625         0.397879         3.399041
 H         4.730657        -1.094173         2.442625
 H         5.397654         0.475905         2.078591
 H         2.056206        -1.388289         1.277923
 H         1.548969        -0.356013         2.636956
 H        -0.228365        -0.206351        -1.072150
 H        -0.776652        -0.425764         0.825603
 H        -0.589927         1.151661         0.104001
 H         3.489926         2.588442         1.105638
 H         4.290660         0.714075        -0.691507
