19
Iteration:   299
 C         4.538225        -0.141922         2.258927
 C         3.384828         0.268466         1.428658
 C         2.064569        -0.538642         1.633030
 C         1.295440         0.312913         0.503736
 C        -0.090944        -0.028642        -0.199781
 O         1.462725         1.598944         0.973292
 C         2.879170         1.671576         1.027212
 C         3.359863         0.810459        -0.031191
 O         2.210588         0.354817        -0.699926
 H         4.273798        -0.385404         3.306121
 H         5.060554        -1.127691         1.898385
 H         5.243914         0.670916         2.289996
 H         2.276787        -1.475648         1.183695
 H         1.641834        -0.381132         2.631989
 H        -0.062519         0.496496        -1.172452
 H        -0.132171        -1.101866        -0.380658
 H        -0.963145         0.201440         0.428358
 H         3.341675         2.638742         1.309942
 H         4.275444         0.975617        -0.726425
