19
Iteration:  4435charge 0 multiplicity 1
 C         4.327955         0.655360         2.659864
 C         3.272857         0.592146         1.540376
 C         1.791908         0.479027         1.954592
 C         1.251229         0.400498         0.567343
 C        -0.193414         0.275487         0.047280
 O         1.812265         1.432604        -0.230773
 C         3.197773         1.347339         0.128319
 C         3.433648        -0.096903         0.207834
 O         2.206063        -0.765465        -0.006305
 H         4.329005         1.709489         2.968941
 H         4.092712         0.175103         3.609901
 H         5.327155         0.325470         2.356936
 H         1.540096        -0.510666         2.435026
 H         1.457438         1.220323         2.705823
 H        -0.002748        -0.022840        -0.979588
 H        -0.868302        -0.372851         0.643362
 H        -0.468082         1.329454        -0.130165
 H         3.955906         2.088163        -0.203751
 H         4.277484        -0.483109        -0.314570
