19
Iteration:  2831
 C         4.338200         0.823930         2.624972
 C         3.194427         0.651003         1.603603
 C         1.759567         0.592405         1.825063
 C         1.268019         0.330986         0.420771
 C        -0.184406         0.259763         0.101042
 O         1.977952         1.499370        -0.281480
 C         3.326954         1.255337         0.216389
 C         3.351719        -0.292119         0.375041
 O         2.076749        -0.827399        -0.028247
 H         4.453434         1.903300         2.871233
 H         4.101653         0.271841         3.604663
 H         5.270631         0.349374         2.283690
 H         1.518576        -0.221345         2.529110
 H         1.567579         1.615869         2.169965
 H        -0.498313        -0.699163        -0.298185
 H        -0.854906         0.522875         0.965915
 H        -0.486797         1.046544        -0.580508
 H         4.004118         1.887520        -0.273653
 H         4.314737        -0.917833         0.242743
