19
Iteration:  1599
 C         4.411386         0.329045         2.614786
 C         3.291620         0.553000         1.580806
 C         1.881351         0.187423         1.890465
 C         1.263341         0.398222         0.383027
 C        -0.212064         0.126126         0.023938
 O         1.739017         1.648657         0.097106
 C         3.131003         1.529063         0.451177
 C         3.440543         0.124512         0.082220
 O         2.207157        -0.523316        -0.284842
 H         4.522882         1.050570         3.488273
 H         4.220505        -0.566182         3.203471
 H         5.341800         0.355328         2.174068
 H         1.744989        -0.876486         1.922022
 H         1.314967         0.733453         2.638724
 H        -0.484880         0.266282        -1.076572
 H        -0.482714        -0.880657         0.350076
 H        -0.804054         0.888211         0.493498
 H         3.619243         2.483489         0.351310
 H         4.301062        -0.435964        -0.292546
