19
Iteration:   773charge 0 multiplicity 1
 C         4.469145         0.033911         2.365853
 C         3.249367         0.405233         1.612698
 C         1.907605        -0.378109         1.694067
 C         1.334498         0.241959         0.413996
 C        -0.128005         0.116740         0.039660
 O         1.577156         1.693582         0.529888
 C         2.912220         1.721904         0.794443
 C         3.470798         0.488000         0.071488
 O         2.290967         0.012105        -0.608976
 H         4.428272         0.193785         3.385900
 H         4.727069        -1.031755         2.133124
 H         5.428132         0.535694         1.995361
 H         2.026152        -1.487525         1.631101
 H         1.474165        -0.108462         2.634212
 H        -0.809541         0.862905         0.495015
 H        -0.250139         0.100506        -1.049117
 H        -0.565310        -0.880358         0.309190
 H         3.561138         2.570705         0.923470
 H         4.412167         0.411704        -0.522855
