19
Iteration:  3276charge 0 multiplicity 1
 C         4.320932         0.823871         2.684979
 C         3.262433         0.692469         1.528235
 C         1.807344         0.545018         1.932080
 C         1.318422         0.333349         0.496508
 C        -0.160323         0.361356        -0.034283
 O         1.873960         1.444437        -0.161032
 C         3.227210         1.205558         0.039326
 C         3.417991        -0.267690         0.322136
 O         2.086396        -0.843239         0.018277
 H         3.847521         1.573082         3.333286
 H         4.316635        -0.011584         3.323137
 H         5.300113         1.108926         2.375726
 H         1.734523        -0.340943         2.602037
 H         1.270003         1.473550         2.262623
 H         0.007519         0.387276        -1.110447
 H        -0.892513        -0.431650         0.231697
 H        -0.674569         1.308293         0.295569
 H         4.027013         1.900113        -0.245822
 H         4.289405        -0.950105         0.154939
