19
Iteration:  3247
 C         4.343008         0.853597         2.593258
 C         3.168317         0.585781         1.596643
 C         1.731028         0.484032         1.858927
 C         1.313597         0.384079         0.362330
 C        -0.167613         0.271605         0.117958
 O         1.994649         1.512511        -0.274415
 C         3.249064         1.253819         0.234707
 C         3.399274        -0.295382         0.378976
 O         2.071901        -0.767866        -0.008535
 H         4.189282         1.842165         3.018855
 H         4.371197         0.144845         3.478499
 H         5.368989         0.827407         2.124014
 H         1.411344        -0.391509         2.389587
 H         1.198127         1.320689         2.253236
 H        -0.345955        -0.249031        -0.848282
 H        -0.688910        -0.232494         0.903415
 H        -0.618411         1.305282        -0.023705
 H         4.202378         1.862448         0.060017
 H         4.326760        -0.826169         0.021232
