19
Iteration:  2674
 C         4.248303         0.772690         2.579317
 C         3.270216         0.596702         1.555900
 C         1.736968         0.575688         1.861139
 C         1.293041         0.439325         0.432362
 C        -0.165172         0.211729         0.081575
 O         1.939036         1.525163        -0.197707
 C         3.328847         1.251073         0.138331
 C         3.403914        -0.219227         0.332047
 O         2.070018        -0.864986         0.025017
 H         4.358144         1.905258         2.827287
 H         4.008215         0.375057         3.567669
 H         5.302853         0.411611         2.411684
 H         1.503819        -0.174559         2.595483
 H         1.429874         1.537577         2.254678
 H        -0.827300        -0.180069         0.889532
 H        -0.564499         1.265192        -0.075515
 H        -0.191052        -0.277988        -0.901724
 H         4.121974         1.938807        -0.087171
 H         4.238770        -0.934255         0.076694
