19
Iteration:  1168charge 0 multiplicity 1
 C         4.375379         0.225379         2.520388
 C         3.267391         0.305717         1.548409
 C         1.817969        -0.095874         1.791378
 C         1.288393         0.317976         0.402865
 C        -0.118803         0.069527         0.157088
 O         1.703936         1.758588         0.305126
 C         3.041236         1.587814         0.594764
 C         3.481201         0.274203         0.074850
 O         2.239288        -0.187350        -0.495703
 H         4.236511         0.715656         3.455154
 H         4.882399        -0.803899         2.503911
 H         5.150052         0.938034         1.981798
 H         1.626536        -1.145390         1.756567
 H         1.216568         0.268746         2.600036
 H        -0.455008         0.931079        -0.432253
 H        -0.107402        -0.786552        -0.505944
 H        -0.711090        -0.111042         1.034142
 H         3.690026         2.499096         0.657790
 H         4.460437         0.138996        -0.508356
