19
Iteration:   529charge 0 multiplicity 1
 C         4.473422         0.059187         2.407125
 C         3.287478         0.224383         1.457030
 C         2.003389        -0.474608         1.548407
 C         1.280805         0.328285         0.403245
 C        -0.090540         0.025309         0.012721
 O         1.565905         1.702586         0.769980
 C         2.917049         1.653427         0.991836
 C         3.452594         0.549004        -0.026797
 O         2.204034         0.220639        -0.696283
 H         4.392291         0.290506         3.445626
 H         4.844914        -1.045725         2.425628
 H         5.243191         0.688756         1.934128
 H         2.031643        -1.565010         1.419364
 H         1.484090        -0.228183         2.523455
 H        -0.579817         0.921632        -0.426365
 H         0.046728        -0.664277        -0.871108
 H        -0.606571        -0.575151         0.824738
 H         3.474696         2.530309         1.342891
 H         4.365709         0.514876        -0.741169
