19
Iteration:  4526
 C         4.291127         0.803741         2.625919
 C         3.283340         0.673814         1.556819
 C         1.802489         0.372790         1.885463
 C         1.277909         0.288510         0.453612
 C        -0.183043         0.318702         0.014820
 O         1.862020         1.502554        -0.129330
 C         3.245435         1.260398         0.127605
 C         3.430263        -0.161865         0.258763
 O         2.131740        -0.757286         0.011438
 H         4.104490         1.505986         3.496662
 H         4.482519        -0.186611         3.122418
 H         5.269900         0.971582         2.123381
 H         1.603450        -0.443752         2.552452
 H         1.522466         1.211366         2.501924
 H        -0.405827         0.823624        -0.906060
 H        -0.852843        -0.526005         0.171007
 H        -0.741784         0.958473         0.672814
 H         3.931456         1.879250        -0.373457
 H         4.335561        -0.821320         0.014866
