19
Iteration:  1240
 C         4.367922         0.339667         2.492186
 C         3.281171         0.349456         1.533571
 C         1.856381        -0.071236         1.773105
 C         1.261780         0.373291         0.475378
 C        -0.115136         0.078936         0.005831
 O         1.712456         1.826076         0.428775
 C         3.121852         1.557602         0.635434
 C         3.461129         0.192356        -0.000765
 O         2.172651        -0.348207        -0.495735
 H         4.191540         1.253481         3.159395
 H         4.537567        -0.641157         2.875625
 H         5.230836         0.628103         1.938983
 H         1.783833        -1.198721         1.922818
 H         1.550008         0.369227         2.770307
 H        -0.799941        -0.188684         0.854059
 H        -0.562959         0.966166        -0.590941
 H        -0.168390        -0.862346        -0.574173
 H         3.836713         2.389961         0.902978
 H         4.331260        -0.201811        -0.593058
