19
Iteration:  4494charge 0 multiplicity 1
 C         4.369109         0.758476         2.558696
 C         3.195555         0.505980         1.620612
 C         1.711721         0.496696         1.898510
 C         1.303640         0.433978         0.367646
 C        -0.133696         0.070635         0.154310
 O         1.946632         1.565623        -0.241726
 C         3.250848         1.312519         0.290952
 C         3.388596        -0.216658         0.369320
 O         2.064954        -0.631561        -0.158075
 H         4.472417         1.832625         2.852688
 H         4.214593         0.063566         3.419869
 H         5.356120         0.557112         2.088399
 H         1.328308        -0.289206         2.490944
 H         1.617842         1.497141         2.215683
 H        -0.455955        -0.131780        -0.864208
 H        -0.407673        -0.823871         0.707667
 H        -0.678688         0.856370         0.688580
 H         4.016826         2.027088         0.200506
 H         4.238402        -0.895997         0.034463
