19
Iteration:  2712charge 0 multiplicity 1
 C         4.399112         0.728318         2.752469
 C         3.256991         0.621882         1.585486
 C         1.744100         0.684262         1.885776
 C         1.288322         0.425161         0.399533
 C        -0.178024         0.175043         0.080736
 O         1.909650         1.531171        -0.302855
 C         3.344352         1.174710         0.066635
 C         3.327138        -0.255752         0.380389
 O         2.021875        -0.757798         0.010045
 H         4.177628         1.678005         3.206587
 H         4.380477        -0.121829         3.485304
 H         5.336254         0.730210         2.219092
 H         1.463981        -0.194646         2.529742
 H         1.354054         1.662891         2.277694
 H        -0.260287        -0.914554         0.342227
 H        -1.004749         0.807495         0.502766
 H        -0.191670         0.152929        -1.054182
 H         4.215091         1.787750        -0.276882
 H         4.355718        -0.632396         0.203057
