19
Iteration:   647charge 0 multiplicity 1
 C         4.499729        -0.043144         2.285029
 C         3.242582         0.311187         1.570427
 C         1.830332        -0.308070         1.636458
 C         1.338805         0.295019         0.360266
 C        -0.002449        -0.015421         0.043202
 O         1.519950         1.767939         0.617352
 C         2.925725         1.649703         0.885193
 C         3.438937         0.523889         0.086195
 O         2.289803         0.112953        -0.636220
 H         4.548552         0.007277         3.436549
 H         4.897609        -1.027557         2.072724
 H         5.169346         0.716444         1.960000
 H         2.027923        -1.358342         1.536130
 H         1.324362        -0.078969         2.613718
 H        -0.276771        -1.035026        -0.144220
 H        -0.526507         0.146916         1.004754
 H        -0.395814         0.654696        -0.740798
 H         3.491622         2.512310         1.191386
 H         4.406757         0.427903        -0.456036
