19
Iteration:  4975charge 0 multiplicity 1
 C         4.377862         0.674632         2.584972
 C         3.203726         0.774658         1.610434
 C         1.777934         0.578858         1.940169
 C         1.333774         0.321942         0.472276
 C        -0.205560         0.366141         0.040698
 O         1.828482         1.413517        -0.258086
 C         3.200915         1.271344         0.124971
 C         3.430278        -0.148811         0.311834
 O         2.221516        -0.861527         0.032617
 H         4.105916         1.279967         3.470322
 H         4.281220        -0.346948         2.978643
 H         5.419415         0.907222         2.340340
 H         1.551155        -0.427879         2.514031
 H         1.098125         1.375487         2.440528
 H        -0.228889         0.327938        -1.019283
 H        -0.858500        -0.541470         0.256343
 H        -0.735023         1.213384         0.475009
 H         3.791987         2.002162        -0.430710
 H         4.271979        -0.717683         0.123766
