19
Iteration:   545
 C         4.546470         0.089562         2.370744
 C         3.313023         0.168118         1.509419
 C         1.878626        -0.538533         1.549381
 C         1.332023         0.353455         0.404464
 C        -0.128931         0.067544         0.063355
 O         1.519387         1.705277         0.674553
 C         2.974551         1.592032         0.954012
 C         3.405070         0.633119         0.019944
 O         2.315415         0.182222        -0.697125
 H         4.174272         0.530158         3.374991
 H         4.957035        -0.882552         2.566753
 H         5.430844         0.735289         2.067066
 H         1.906685        -1.610561         1.138712
 H         1.287418        -0.648694         2.433592
 H        -0.712332         0.911663         0.418312
 H        -0.405588        -0.274630        -0.930426
 H        -0.603970        -0.664671         0.678149
 H         3.336429         2.587217         1.120631
 H         4.336609         0.747909        -0.388982
