19
Iteration:  1754
 C         4.349882         0.452256         2.561670
 C         3.206333         0.537258         1.559554
 C         1.840673         0.213947         1.927326
 C         1.288841         0.389600         0.403452
 C        -0.208158         0.080807         0.058008
 O         1.847444         1.783383         0.091165
 C         3.170225         1.457224         0.338616
 C         3.434130        -0.073986         0.167176
 O         2.210039        -0.507917        -0.268919
 H         4.403665         1.443639         3.250045
 H         4.085535        -0.336676         3.295435
 H         5.200891         0.096820         2.027203
 H         1.541423        -0.753797         2.354948
 H         1.359048         1.054715         2.459362
 H        -0.526036        -0.524492         0.951420
 H        -1.059433         0.816868         0.021172
 H        -0.084834        -0.609062        -0.865563
 H         3.853410         2.320351         0.075446
 H         4.245844        -0.605865        -0.349091
