19
Iteration:  1380charge 0 multiplicity 1
 C         4.340935         0.426741         2.498540
 C         3.240272         0.405121         1.578368
 C         1.847367        -0.047145         1.773683
 C         1.309354         0.351961         0.409472
 C        -0.108363         0.179228         0.038005
 O         1.711381         1.724982         0.333667
 C         3.164588         1.533434         0.601176
 C         3.432923         0.111851         0.117021
 O         2.197834        -0.413070        -0.469468
 H         4.182215         1.326443         3.253042
 H         4.688007        -0.532796         2.933075
 H         5.225484         0.659065         1.892628
 H         1.945245        -1.149681         1.863385
 H         1.282818         0.459548         2.579157
 H        -0.453730         1.013931        -0.569163
 H        -0.346869        -0.903950        -0.262595
 H        -0.734055         0.418315         0.910370
 H         3.611090         2.475768         0.424370
 H         4.243186        -0.299732        -0.475346
