19
Iteration:   637charge 0 multiplicity 1
 C         4.488590        -0.026355         2.315743
 C         3.192591         0.322365         1.529958
 C         1.883914        -0.344696         1.684111
 C         1.322283         0.335469         0.435873
 C        -0.078789        -0.076243        -0.042129
 O         1.608713         1.793477         0.744400
 C         2.971785         1.681702         0.862947
 C         3.464235         0.547026         0.034972
 O         2.257412         0.068611        -0.674407
 H         4.414078        -0.002361         3.418017
 H         4.911042        -0.979133         1.932546
 H         5.217499         0.688621         2.012505
 H         1.917162        -1.410572         1.618000
 H         1.135356        -0.083242         2.484682
 H        -0.108624        -1.165231         0.021465
 H        -0.755182         0.502814         0.629529
 H        -0.450201         0.289612        -1.041270
 H         3.422033         2.648409         1.022318
 H         4.415268         0.464130        -0.494382
