19
Iteration:  2783charge 0 multiplicity 1
 C         4.351969         0.923597         2.644247
 C         3.340865         0.584903         1.633644
 C         1.847148         0.572318         1.858958
 C         1.250621         0.359667         0.393490
 C        -0.246753         0.303470        -0.045217
 O         2.007695         1.494926        -0.219541
 C         3.295756         1.178715         0.218288
 C         3.357634        -0.295201         0.385511
 O         1.978182        -0.828479         0.040945
 H         3.772641         1.767218         3.111209
 H         4.526457         0.137045         3.348602
 H         5.345430         1.165859         2.129831
 H         1.702210        -0.368385         2.367273
 H         1.390738         1.444623         2.283292
 H        -0.384811        -0.731373        -0.396498
 H        -0.930979         0.491846         0.739606
 H        -0.631366         1.023110        -0.793689
 H         4.126807         1.818607        -0.249231
 H         3.864911        -0.975351        -0.177949
