19
Iteration:  1443charge 0 multiplicity 1
 C         4.314628         0.302826         2.487955
 C         3.231918         0.496198         1.571229
 C         1.755687         0.054114         1.924708
 C         1.316583         0.345290         0.434886
 C        -0.135484         0.012734         0.074974
 O         1.751549         1.779049         0.253983
 C         3.216985         1.613951         0.454619
 C         3.468243         0.096494         0.078811
 O         2.181717        -0.371747        -0.415157
 H         4.333291         0.973995         3.355595
 H         4.363529        -0.803742         2.794800
 H         5.354717         0.485097         2.088256
 H         1.647974        -0.992740         2.278123
 H         1.291788         0.712441         2.655942
 H        -0.816620         0.629562         0.667838
 H        -0.177573         0.423006        -1.002335
 H        -0.132828        -1.128144         0.156786
 H         3.847596         2.460319         0.360763
 H         4.247021        -0.335342        -0.534181
