19
Iteration:  3604
 C         4.343854         0.912614         2.754009
 C         3.306977         0.581594         1.598823
 C         1.876972         0.452775         1.906470
 C         1.302543         0.353359         0.531643
 C        -0.094351         0.301573        -0.081449
 O         1.836422         1.556092        -0.154447
 C         3.225248         1.220214         0.059609
 C         3.327113        -0.288431         0.225287
 O         2.030515        -0.795424         0.058591
 H         4.136028         1.863437         3.360030
 H         4.174451         0.122286         3.510473
 H         5.321830         0.752838         2.239863
 H         1.551229        -0.462930         2.504724
 H         1.370960         1.237402         2.512684
 H         0.140100        -0.004091        -1.128710
 H        -0.724972        -0.410076         0.300269
 H        -0.491545         1.290612        -0.178477
 H         3.992806         1.833844        -0.598457
 H         4.113371        -0.828362        -0.346916
