19
Iteration:  2443
 C         4.367371         0.859907         2.605024
 C         3.239194         0.661984         1.646778
 C         1.686325         0.560018         1.819313
 C         1.321412         0.349246         0.410445
 C        -0.105972         0.400516         0.129371
 O         1.834139         1.468288        -0.273104
 C         3.327308         1.271136         0.204580
 C         3.328396        -0.349247         0.398681
 O         2.126151        -0.894089        -0.014015
 H         4.235889         1.793970         3.165989
 H         4.214587         0.045034         3.215199
 H         5.314561         0.758817         2.066819
 H         1.513093        -0.332943         2.382805
 H         1.238656         1.422309         2.255841
 H        -0.394567        -0.616392        -0.154457
 H        -0.826342         0.823143         0.795962
 H        -0.002676         1.012392        -0.796199
 H         4.148212         1.819272        -0.312196
 H         4.142484        -0.990625        -0.027417
