19
Iteration:  2966
 C         4.360841         0.840491         2.690399
 C         3.294335         0.645118         1.623987
 C         1.774859         0.476697         1.866824
 C         1.351866         0.354148         0.420855
 C        -0.252568         0.396283        -0.021720
 O         1.861341         1.473045        -0.242366
 C         3.221974         1.238758         0.157439
 C         3.369193        -0.259335         0.267460
 O         2.145309        -0.858538         0.052333
 H         4.183518         1.502525         3.514142
 H         4.508330        -0.126734         3.148132
 H         5.377615         1.079564         2.343186
 H         1.434783        -0.478273         2.364693
 H         1.340728         1.334364         2.457128
 H        -0.836155         0.075665         0.867918
 H        -0.423536         1.431426        -0.255666
 H        -0.653112        -0.203729        -0.910205
 H         4.052182         1.938351        -0.130642
 H         4.382382        -0.726381         0.142398
