19
Iteration:  1453
 C         4.382806         0.285954         2.567955
 C         3.177783         0.462702         1.562286
 C         1.817535         0.120551         1.952110
 C         1.293342         0.426294         0.421988
 C        -0.115258         0.011850         0.100418
 O         1.758756         1.789289         0.186875
 C         3.202366         1.554358         0.515555
 C         3.365062         0.085188         0.098524
 O         2.215001        -0.376251        -0.495239
 H         4.298510         0.874651         3.446288
 H         4.722617        -0.738343         2.928738
 H         5.233028         0.682963         1.887697
 H         1.681001        -0.967131         2.047579
 H         1.267343         0.727839         2.658457
 H        -0.835280         0.080729         0.936417
 H        -0.495455         0.432231        -0.908370
 H        -0.213742        -1.125516        -0.147895
 H         3.879328         2.357123         0.325134
 H         4.314144        -0.292517        -0.299825
