19
Iteration:  2332
 C         4.353854         0.844711         2.605132
 C         3.199034         0.690063         1.627704
 C         1.713767         0.399882         1.873682
 C         1.284753         0.228065         0.451342
 C        -0.096933         0.371640         0.079658
 O         1.965889         1.545457        -0.244337
 C         3.228632         1.199152         0.172288
 C         3.407698        -0.199121         0.359869
 O         2.039689        -0.814044        -0.018472
 H         4.470700         1.849193         3.015095
 H         4.347691         0.194827         3.483142
 H         5.300032         0.643811         2.106657
 H         1.471618        -0.578453         2.330997
 H         1.314906         1.316097         2.320620
 H        -0.682908         0.350752         1.035405
 H        -0.131445         1.364164        -0.403936
 H        -0.530520        -0.318432        -0.672798
 H         4.066060         1.791369        -0.273357
 H         4.111470        -0.762267        -0.204917
