19
Iteration:  3216
 C         4.297014         0.774217         2.594553
 C         3.192192         0.570799         1.597593
 C         1.765513         0.615778         1.923304
 C         1.261936         0.404483         0.400761
 C        -0.197897         0.112982         0.114848
 O         2.009406         1.550424        -0.249888
 C         3.275564         1.258134         0.253216
 C         3.356459        -0.312694         0.376465
 O         2.101960        -0.677676        -0.118163
 H         4.474470         1.860606         2.798901
 H         4.194304         0.217954         3.616979
 H         5.337634         0.438303         2.243272
 H         1.342270        -0.133389         2.613025
 H         1.401682         1.610035         2.247667
 H        -0.234205        -0.808791        -0.512480
 H        -0.762767        -0.091576         1.009026
 H        -0.593698         0.956416        -0.484924
 H         4.240472         1.634684        -0.246391
 H         4.326776        -0.757591         0.037252
