19
Iteration:   170
 C         4.519337        -0.165783         2.274445
 C         3.355820         0.302368         1.440527
 C         2.105190        -0.589834         1.374997
 C         1.327314         0.303264         0.404907
 C        -0.010194        -0.024640        -0.086102
 O         1.413375         1.635797         1.060506
 C         2.819676         1.652880         1.140665
 C         3.345422         0.887763        -0.058634
 O         2.233116         0.361708        -0.703392
 H         4.351958        -0.202081         3.343854
 H         4.682774        -1.181208         1.832055
 H         5.488726         0.304688         2.072959
 H         2.274767        -1.621129         1.072567
 H         1.582071        -0.779650         2.384452
 H        -0.679644        -0.277997         0.755074
 H        -0.371833         0.777452        -0.707878
 H         0.103051        -0.954912        -0.639454
 H         3.312765         2.525207         1.476108
 H         4.262984         1.086016        -0.603602
