19
Iteration:  1560
 C         4.362530         0.483772         2.537353
 C         3.197182         0.370722         1.590395
 C         1.771017         0.177618         1.864428
 C         1.294585         0.411052         0.416469
 C        -0.114201         0.067805         0.080317
 O         1.803842         1.706243         0.246364
 C         3.153616         1.466237         0.472616
 C         3.427058        -0.043801         0.077219
 O         2.217782        -0.361031        -0.440248
 H         4.121392         1.424574         2.993091
 H         4.520904        -0.440938         3.145195
 H         5.384828         0.645429         1.964703
 H         1.620051        -0.872101         2.243826
 H         1.353306         0.860631         2.638856
 H        -0.178323        -0.717893        -0.657608
 H        -0.661109        -0.257824         0.966824
 H        -0.681672         0.981118        -0.357852
 H         3.712666         2.347098         0.467316
 H         4.279164        -0.700662        -0.201966
