19
Iteration:  3107
 C         4.334986         0.870502         2.591494
 C         3.222778         0.511493         1.563026
 C         1.803328         0.527325         1.987104
 C         1.309388         0.379839         0.466725
 C        -0.194300         0.245369         0.051788
 O         1.994095         1.476924        -0.253040
 C         3.301524         1.247743         0.293583
 C         3.310574        -0.316572         0.281514
 O         2.043632        -0.656240        -0.099903
 H         3.777703         1.569352         3.185224
 H         4.558631         0.004375         3.231818
 H         5.243928         1.376590         2.217591
 H         1.318780        -0.330107         2.465306
 H         1.368143         1.389175         2.511221
 H        -0.568214        -0.549267         0.704434
 H        -0.646836         1.186669         0.083402
 H        -0.239730        -0.180030        -0.969487
 H         4.227203         1.580721        -0.047133
 H         4.217781        -0.794873         0.004084
