19
Iteration:  2096charge 0 multiplicity 1
 C         4.388975         0.601498         2.679681
 C         3.309004         0.502074         1.580456
 C         1.715162         0.544311         1.870355
 C         1.269569         0.410918         0.425546
 C        -0.237488         0.128483         0.078871
 O         1.886770         1.615474        -0.166919
 C         3.233459         1.302770         0.245408
 C         3.430860        -0.176444         0.244230
 O         2.131882        -0.622926        -0.076905
 H         4.339544         1.640650         3.092565
 H         4.294530        -0.141855         3.406588
 H         5.403971         0.513703         2.188135
 H         1.301094        -0.341493         2.377919
 H         1.437542         1.478336         2.383453
 H        -0.298370        -0.616829        -0.742567
 H        -0.658147        -0.241093         0.980744
 H        -0.856124         0.992524        -0.271675
 H         4.021240         1.831393        -0.374930
 H         4.321538        -0.778513        -0.066911
