19
Iteration:  4362
 C         4.349332         0.871601         2.658211
 C         3.333344         0.466413         1.579088
 C         1.826372         0.555776         1.872907
 C         1.273319         0.456092         0.459424
 C        -0.184500         0.079526         0.010764
 O         1.940419         1.591164        -0.178936
 C         3.290065         1.240687         0.252575
 C         3.324815        -0.279606         0.259455
 O         1.986917        -0.716900        -0.053864
 H         3.814715         1.486480         3.439075
 H         4.805693        -0.043261         3.138290
 H         5.243289         1.451725         2.319046
 H         1.488161        -0.293773         2.471171
 H         1.519609         1.391787         2.428489
 H        -0.284610         0.406740        -0.981710
 H        -0.412106        -1.036897         0.221510
 H        -0.824329         0.744209         0.600491
 H         4.060788         1.954328        -0.217593
 H         4.115277        -0.763021        -0.237673
