19
Iteration:   316charge 0 multiplicity 1
 C         4.493484        -0.089042         2.182191
 C         3.292291         0.283905         1.413122
 C         2.017607        -0.519811         1.442334
 C         1.316517         0.277304         0.415338
 C        -0.036508        -0.059719        -0.076965
 O         1.489662         1.721717         0.937797
 C         2.888478         1.729137         1.178379
 C         3.414284         0.732547        -0.006320
 O         2.241557         0.252702        -0.650836
 H         4.236653        -0.367292         3.242452
 H         4.772060        -1.033849         1.821423
 H         5.288302         0.699247         2.115083
 H         2.192626        -1.645939         1.383789
 H         1.522573        -0.434220         2.424052
 H        -0.493433         0.767866        -0.638913
 H         0.183320        -0.928409        -0.736714
 H        -0.752147        -0.263726         0.748922
 H         3.302095         2.609457         1.616619
 H         4.321164         0.779087        -0.559491
