19
Iteration:  2121
 C         4.317902         0.658307         2.598082
 C         3.243493         0.704380         1.540510
 C         1.793232         0.393516         1.918215
 C         1.314397         0.322062         0.457469
 C        -0.102612         0.305842         0.077813
 O         1.917574         1.490124        -0.178380
 C         3.205866         1.376430         0.238879
 C         3.341562        -0.182790         0.324039
 O         2.096980        -0.757839        -0.108844
 H         4.406580         1.689009         2.802185
 H         4.075872         0.073253         3.520654
 H         5.243775         0.330282         2.128664
 H         1.669960        -0.660853         2.309639
 H         1.143855         1.092513         2.554432
 H        -0.260652         0.372996        -1.003439
 H        -0.611181        -0.451753         0.750283
 H        -0.555609         1.322882         0.253681
 H         3.948319         2.169276        -0.050206
 H         4.259740        -0.616991         0.033362
