19
Iteration:   950
 C         4.510191         0.107492         2.370134
 C         3.243796         0.404183         1.580912
 C         1.861962        -0.211365         1.737542
 C         1.316863         0.338657         0.411718
 C        -0.077621        -0.003277        -0.009112
 O         1.624532         1.802027         0.540465
 C         3.040179         1.641075         0.793254
 C         3.376993         0.314223         0.097351
 O         2.204382        -0.101027        -0.645142
 H         4.467103         0.400837         3.469115
 H         4.756000        -0.970751         2.300157
 H         5.323959         0.772509         1.996943
 H         1.669457        -1.268057         1.813858
 H         1.493635         0.358797         2.634952
 H        -0.492381         0.689138        -0.769189
 H         0.039545        -0.989329        -0.530559
 H        -0.765211        -0.027993         0.841155
 H         3.502306         2.612424         1.076263
 H         4.383998         0.124574        -0.367103
