19
Iteration:  1636
 C         4.304875         0.450060         2.620055
 C         3.258852         0.546741         1.596371
 C         1.827314         0.225602         1.864349
 C         1.344472         0.287612         0.437613
 C        -0.132832         0.189241         0.059286
 O         1.773600         1.664065         0.167653
 C         3.182440         1.476920         0.411120
 C         3.410110         0.064275         0.012730
 O         2.159158        -0.563256        -0.343807
 H         3.989542         0.955993         3.536969
 H         4.475585        -0.640068         2.714310
 H         5.300012         0.807901         2.191432
 H         1.717575        -0.822160         2.297989
 H         1.279698         0.897651         2.578302
 H        -0.372548         1.067110        -0.475226
 H        -0.321532        -0.708846        -0.539873
 H        -0.617731        -0.001312         1.047570
 H         3.874089         2.353063         0.332598
 H         4.324451        -0.419187        -0.318941
