19
Iteration:   249
 C         4.460331        -0.001794         2.183123
 C         3.208896         0.212329         1.490332
 C         2.080647        -0.753251         1.407335
 C         1.332295         0.319987         0.421893
 C        -0.140814         0.061091         0.058781
 O         1.435716         1.600825         0.881844
 C         2.860712         1.617697         1.098929
 C         3.485198         0.775325         0.028288
 O         2.380537         0.421394        -0.703649
 H         4.459359        -0.055409         3.293185
 H         4.864113        -0.950680         1.940873
 H         5.081361         0.901691         1.844260
 H         2.276619        -1.708199         0.878858
 H         1.576979        -0.749921         2.445383
 H        -0.133390        -0.766061        -0.661733
 H        -0.732319        -0.230416         0.960035
 H        -0.516782         0.975040        -0.456074
 H         3.138671         2.484763         1.761087
 H         4.387181         0.987592        -0.537603
