19
Iteration:  1379charge 0 multiplicity 1
 C         4.334162         0.432010         2.494848
 C         3.236932         0.404583         1.569231
 C         1.840425        -0.055067         1.777302
 C         1.306703         0.359727         0.412570
 C        -0.103210         0.175747         0.036728
 O         1.714377         1.737121         0.337727
 C         3.165233         1.529858         0.604617
 C         3.438033         0.105946         0.123189
 O         2.195357        -0.420747        -0.478127
 H         4.185164         1.318869         3.242359
 H         4.709016        -0.536541         2.920945
 H         5.259172         0.673125         1.905369
 H         1.936606        -1.153287         1.881322
 H         1.269211         0.463267         2.553623
 H        -0.453808         0.993388        -0.592598
 H        -0.327589        -0.920346        -0.222643
 H        -0.714968         0.440663         0.956408
 H         3.610165         2.496018         0.431824
 H         4.267052        -0.279128        -0.481130
