19
Iteration:  3154
 C         4.354766         0.720309         2.660968
 C         3.260167         0.658837         1.560559
 C         1.720533         0.550836         1.929855
 C         1.334634         0.344667         0.430827
 C        -0.189974         0.269947         0.072209
 O         1.941573         1.454712        -0.321252
 C         3.268283         1.300929         0.216801
 C         3.375065        -0.242600         0.337482
 O         2.088693        -0.751962        -0.010868
 H         4.194897         1.587164         3.319501
 H         4.495487        -0.226315         3.091190
 H         5.249506         0.951061         2.111267
 H         1.518193        -0.319536         2.639887
 H         1.328293         1.442091         2.530984
 H        -0.593241        -0.738721        -0.216263
 H        -0.972744         0.782060         0.730966
 H        -0.403184         0.775387        -0.887471
 H         3.907983         2.169189        -0.199368
 H         4.231240        -0.932990         0.251394
