19
Iteration:   983charge 0 multiplicity 1
 C         4.451701         0.068149         2.390400
 C         3.305359         0.362497         1.569636
 C         1.877137        -0.207438         1.714883
 C         1.319994         0.316261         0.435760
 C        -0.173773         0.099536         0.061326
 O         1.579497         1.713035         0.428242
 C         2.981049         1.723290         0.720931
 C         3.430380         0.418006         0.088423
 O         2.330438        -0.184880        -0.538461
 H         4.246957         0.280605         3.493156
 H         4.775186        -0.966918         2.249263
 H         5.348571         0.611874         2.062739
 H         1.682519        -1.258146         1.804662
 H         1.642953         0.357574         2.665880
 H        -0.718318         1.069846         0.155964
 H        -0.207135        -0.285681        -0.989850
 H        -0.607095        -0.719122         0.616094
 H         3.476550         2.688633         0.864482
 H         4.411575         0.411251        -0.363598
