19
Iteration:  1221
 C         4.398533         0.353819         2.595107
 C         3.364276         0.407087         1.507734
 C         1.945773        -0.219375         1.853343
 C         1.260608         0.346974         0.447384
 C        -0.112776         0.186933         0.018949
 O         1.657475         1.669258         0.360839
 C         3.069786         1.552556         0.595351
 C         3.364827         0.217917        -0.026811
 O         2.176261        -0.240250        -0.493448
 H         4.047859         1.034881         3.329426
 H         4.506773        -0.603474         3.130310
 H         5.434792         0.586628         2.221849
 H         1.813940        -1.284051         1.879000
 H         1.460316         0.263326         2.699567
 H        -0.793362         0.652403         0.738174
 H        -0.110576         0.821591        -0.846058
 H        -0.280836        -0.856259        -0.105828
 H         3.702346         2.460214         0.374085
 H         4.298212        -0.093382        -0.621878
