19
Iteration:   574
 C         4.420753         0.104657         2.363748
 C         3.328964         0.350335         1.485728
 C         2.034060        -0.408355         1.514516
 C         1.355968         0.264740         0.355928
 C        -0.159255         0.134141         0.053607
 O         1.517955         1.624277         0.784125
 C         2.925915         1.646428         0.982840
 C         3.473442         0.535889        -0.025129
 O         2.276342         0.042772        -0.687666
 H         4.210165         0.302745         3.379614
 H         4.630449        -1.035438         2.470618
 H         5.328859         0.699619         2.070520
 H         2.172803        -1.489696         1.319706
 H         1.409865        -0.396125         2.436966
 H        -0.705987         0.386981         1.001038
 H        -0.507403         0.935636        -0.702158
 H        -0.544827        -0.825953        -0.384736
 H         3.238690         2.656298         1.224800
 H         4.414495         0.567936        -0.557773
