19
Iteration:  3397
 C         4.279269         0.879727         2.689154
 C         3.334838         0.711670         1.560318
 C         1.823486         0.477666         1.967904
 C         1.280604         0.370943         0.558137
 C        -0.024350         0.341234        -0.037955
 O         1.871865         1.471405        -0.165553
 C         3.207317         1.211029         0.086143
 C         3.347777        -0.296340         0.306794
 O         2.022400        -0.837547        -0.084992
 H         4.363177         1.963381         3.051191
 H         3.925711         0.311775         3.526778
 H         5.251844         0.477435         2.353811
 H         1.870707        -0.514776         2.493523
 H         1.230382         1.279577         2.453398
 H         0.131576        -0.044709        -1.068561
 H        -0.620098        -0.252358         0.591904
 H        -0.488849         1.392602        -0.012191
 H         3.929447         1.892057        -0.373330
 H         4.026242        -1.030291        -0.007396
