19
Iteration:  2367
 C         4.272797         0.703378         2.610236
 C         3.280024         0.610127         1.561530
 C         1.746350         0.637944         1.861086
 C         1.241881         0.442898         0.496955
 C        -0.203428         0.212361         0.081898
 O         1.965699         1.500264        -0.265066
 C         3.306572         1.242122         0.144401
 C         3.423631        -0.240819         0.348560
 O         2.088517        -0.792846         0.017887
 H         4.013538         1.495911         3.370078
 H         4.362174        -0.246105         3.043339
 H         5.198527         0.963749         2.054914
 H         1.416001        -0.028718         2.640051
 H         1.590028         1.619129         2.292817
 H        -0.793008        -0.423228         0.792125
 H        -0.711787         1.151909         0.088003
 H        -0.239528        -0.214797        -0.971017
 H         4.059838         1.943085        -0.081953
 H         4.343589        -0.906207         0.035121
