19
Iteration:  3255charge 0 multiplicity 1
 C         4.284188         0.870298         2.586311
 C         3.254208         0.636305         1.596921
 C         1.734181         0.469443         1.860971
 C         1.322667         0.321279         0.391787
 C        -0.207089         0.266633         0.035097
 O         2.004675         1.516256        -0.235941
 C         3.282893         1.272993         0.262563
 C         3.364346        -0.265497         0.373737
 O         2.088865        -0.795199         0.016671
 H         4.188523         1.793820         3.119554
 H         4.257922         0.064010         3.259802
 H         5.178135         0.840846         2.009865
 H         1.540354        -0.434772         2.437737
 H         1.452689         1.412559         2.322289
 H        -0.565971        -0.054574        -0.939672
 H        -0.788974        -0.186805         0.843693
 H        -0.443295         1.365977         0.189546
 H         4.069727         1.709944        -0.377648
 H         4.112550        -0.937179        -0.077114
