19
Iteration:  3657
 C         4.483585         0.683963         2.604896
 C         3.122838         0.686145         1.769390
 C         1.591224         0.657948         1.830621
 C         1.340196         0.293376         0.289742
 C        -0.164306         0.145712         0.175597
 O         1.964491         1.545665        -0.276978
 C         3.277569         1.250573         0.201090
 C         3.369052        -0.225902         0.390439
 O         2.129548        -0.729728        -0.121488
 H         4.162482         1.375113         3.431751
 H         4.475896        -0.283880         3.125208
 H         5.387551         0.872565         2.002444
 H         1.337350        -0.170497         2.564219
 H         0.898704         1.478996         1.986656
 H        -0.553677        -0.124074        -0.890937
 H        -0.381426        -0.401492         1.053100
 H        -0.583287         1.150869         0.521553
 H         4.109486         1.836070        -0.241338
 H         4.322189        -0.716935         0.240135
