19
Iteration:  4770
 C         4.264720         0.610282         2.624440
 C         3.284712         0.770188         1.541502
 C         1.847480         0.543351         1.902948
 C         1.288146         0.354181         0.490784
 C        -0.111955         0.270693         0.045686
 O         1.845644         1.472470        -0.216166
 C         3.159994         1.311858         0.135437
 C         3.378974        -0.148411         0.280959
 O         2.190866        -0.830597         0.024088
 H         3.968782         1.195508         3.532455
 H         4.408753        -0.474508         2.894247
 H         5.271446         1.041474         2.332341
 H         1.480379        -0.317062         2.455700
 H         1.320599         1.406293         2.309853
 H        -0.444055         0.567377        -0.971810
 H        -0.531841        -0.796400         0.222813
 H        -0.685121         1.031475         0.633083
 H         3.803091         2.124916        -0.181842
 H         4.401177        -0.624775         0.149969
