19
Iteration:   450
 C         4.542992        -0.022521         2.233876
 C         3.228131         0.257972         1.578844
 C         1.938544        -0.499431         1.461842
 C         1.317462         0.342288         0.336694
 C        -0.122786         0.050671         0.055987
 O         1.476559         1.666182         0.817700
 C         2.942374         1.672095         0.987550
 C         3.447660         0.723528         0.049959
 O         2.363465         0.135140        -0.655525
 H         4.521895        -0.015151         3.365566
 H         4.994898        -0.959136         1.862734
 H         5.286065         0.682114         2.004079
 H         1.783219        -1.580547         1.307152
 H         1.218341        -0.239771         2.220470
 H        -0.202755        -0.944371        -0.435361
 H        -0.684695        -0.009808         0.990740
 H        -0.629092         0.699838        -0.677455
 H         3.361476         2.585073         1.434902
 H         4.290380         0.682526        -0.541773
