19
Iteration:  1459
 C         4.434836         0.295518         2.567311
 C         3.235871         0.421849         1.619220
 C         1.818359         0.149750         1.875293
 C         1.273599         0.452378         0.421123
 C        -0.118481         0.011923         0.087026
 O         1.775177         1.776751         0.158365
 C         3.125680         1.493624         0.536657
 C         3.349154         0.097720         0.105369
 O         2.207671        -0.366532        -0.499435
 H         4.206817         0.915812         3.490055
 H         4.645768        -0.712226         2.856601
 H         5.222904         0.767723         2.024039
 H         1.715676        -0.927509         2.078047
 H         1.303571         0.747346         2.661933
 H        -0.786378        -0.025236         0.960876
 H        -0.681346         0.526879        -0.649337
 H        -0.052386        -1.005355        -0.195337
 H         3.834130         2.355129         0.365539
 H         4.353467        -0.278194        -0.117580
