19
Iteration:  2355charge 0 multiplicity 1
 C         4.338761         0.723819         2.609234
 C         3.223079         0.631698         1.577734
 C         1.832357         0.554609         1.909542
 C         1.258737         0.420179         0.426829
 C        -0.280930         0.361260         0.088943
 O         1.945837         1.411730        -0.297116
 C         3.242177         1.270673         0.190374
 C         3.416658        -0.238841         0.365771
 O         2.140707        -0.780763        -0.012823
 H         4.152377         1.634017         3.241131
 H         4.403857        -0.045664         3.314287
 H         5.376222         0.881147         2.265114
 H         1.539096        -0.401120         2.343692
 H         1.425270         1.455559         2.333737
 H        -0.803893        -0.253090         0.883617
 H        -0.769650         1.234375        -0.258482
 H        -0.199449        -0.347143        -0.793350
 H         3.807926         2.092039        -0.158290
 H         4.235227        -1.056826         0.328452
