19
Iteration:  4668
 C         4.414686         0.731042         2.654420
 C         3.273300         0.652089         1.594639
 C         1.778819         0.381343         1.913090
 C         1.258514         0.281665         0.455569
 C        -0.137268         0.243651         0.067367
 O         1.867287         1.557531        -0.144456
 C         3.205582         1.309156         0.140912
 C         3.375175        -0.163551         0.260994
 O         2.097544        -0.712512        -0.082170
 H         4.605201         1.785154         2.909658
 H         4.179177         0.230834         3.611655
 H         5.372713         0.353206         2.286100
 H         1.536873        -0.487785         2.579823
 H         1.265544         1.236597         2.426161
 H        -0.033917        -0.064891        -1.065238
 H        -0.801829        -0.465772         0.518478
 H        -0.686456         1.187100         0.045074
 H         3.780482         2.213082        -0.229896
 H         4.237109        -0.760090         0.066027
