19
Iteration:  3027charge 0 multiplicity 1
 C         4.435885         0.699273         2.655435
 C         3.176132         0.559698         1.612614
 C         1.744992         0.583865         1.844388
 C         1.270857         0.455002         0.375241
 C        -0.164088         0.092441         0.096897
 O         1.945752         1.591871        -0.263455
 C         3.286426         1.333573         0.213695
 C         3.349481        -0.297436         0.438452
 O         2.073563        -0.707836        -0.081131
 H         4.544517         1.771650         2.957445
 H         4.071474         0.135040         3.584723
 H         5.398751         0.270756         2.312870
 H         1.306497        -0.273140         2.303353
 H         1.390869         1.517832         2.213722
 H        -0.687214         0.029518         1.033305
 H        -0.794087         0.881128        -0.376255
 H        -0.213837        -0.823794        -0.413222
 H         4.123150         1.908177        -0.358028
 H         4.273615        -0.702086        -0.021843
