19
Iteration:  2794
 C         4.266366         0.938586         2.650822
 C         3.290723         0.533159         1.534334
 C         1.846656         0.532881         1.917838
 C         1.280746         0.425120         0.455840
 C        -0.225714         0.215051        -0.001046
 O         2.059724         1.560260        -0.243406
 C         3.317142         1.210502         0.188921
 C         3.299889        -0.381379         0.317838
 O         1.958891        -0.783698         0.040898
 H         4.113945         1.975768         3.070408
 H         4.469328         0.246644         3.447586
 H         5.232951         1.117637         2.079794
 H         1.471932        -0.290099         2.517836
 H         1.574300         1.431154         2.458021
 H        -0.311386        -0.769499        -0.490556
 H        -0.934582         0.310017         0.767513
 H        -0.248769         0.951275        -0.818847
 H         4.203228         1.839724        -0.147563
 H         4.138407        -0.957636         0.148270
