19
Iteration:  3284
 C         4.306597         0.815756         2.680880
 C         3.317632         0.658305         1.586503
 C         1.807983         0.540337         1.910661
 C         1.362755         0.410815         0.546412
 C        -0.074110         0.337824        -0.011146
 O         1.840345         1.432176        -0.271637
 C         3.142783         1.195308         0.096422
 C         3.409847        -0.285419         0.330255
 O         2.059244        -0.817487         0.027669
 H         3.846615         1.609731         3.398911
 H         4.363650        -0.207280         3.218336
 H         5.325072         1.204518         2.409189
 H         1.449563        -0.273829         2.617528
 H         1.496869         1.593800         2.247598
 H         0.134085         0.560784        -1.049474
 H        -0.701105        -0.616591         0.025846
 H        -0.626210         1.161241         0.322560
 H         3.807017         1.896371        -0.251626
 H         4.147609        -0.875650        -0.147267
