19
Iteration:  4146charge 0 multiplicity 1
 C         4.223626         0.699970         2.657174
 C         3.290449         0.651195         1.486477
 C         1.822252         0.643670         1.961888
 C         1.303734         0.430662         0.599516
 C        -0.068895         0.083408        -0.020641
 O         1.904788         1.608621        -0.142595
 C         3.231143         1.240431         0.062660
 C         3.375474        -0.284097         0.244445
 O         2.045195        -0.722645         0.000460
 H         4.011571         1.630776         3.267204
 H         4.116439        -0.325569         3.166930
 H         5.276111         0.810997         2.316353
 H         1.572234        -0.102111         2.817069
 H         1.512388         1.675498         2.403383
 H         0.119522         0.282846        -1.050931
 H        -0.167006        -1.071643         0.172712
 H        -0.947369         0.480522         0.482637
 H         3.820516         1.792879        -0.661920
 H         4.269243        -0.952527         0.030905
