19
Iteration:  4215
 C         4.308698         0.871190         2.528217
 C         3.195894         0.672154         1.583427
 C         1.749934         0.361411         1.930347
 C         1.279029         0.198958         0.456491
 C        -0.202635         0.403114         0.094921
 O         1.994280         1.451300        -0.238435
 C         3.190061         1.372609         0.246571
 C         3.458112        -0.262365         0.350075
 O         2.111836        -0.774891        -0.111240
 H         4.183671         1.715264         3.309845
 H         4.346597        -0.147888         3.060358
 H         5.323198         1.069963         2.008413
 H         1.710770        -0.556684         2.528657
 H         1.147780         1.116877         2.540571
 H        -0.365803         0.083666        -0.989243
 H        -0.849224        -0.075988         0.812229
 H        -0.312279         1.500596         0.292754
 H         4.050092         1.989660        -0.150210
 H         4.238092        -0.956519         0.459618
