19
Iteration:   162
 C         4.588312        -0.184537         2.238881
 C         3.354952         0.266084         1.463717
 C         2.055200        -0.617411         1.406645
 C         1.270258         0.332988         0.413279
 C        -0.133758        -0.056546        -0.051747
 O         1.422170         1.612170         1.041099
 C         2.841229         1.696534         1.164671
 C         3.379296         0.926572         0.008107
 O         2.330740         0.363556        -0.790136
 H         4.346899        -0.201752         3.385228
 H         4.842578        -1.218565         1.958441
 H         5.535113         0.500983         2.090224
 H         2.256217        -1.556656         0.881687
 H         1.504118        -0.709849         2.409839
 H        -0.939789        -0.048592         0.738093
 H        -0.485460         0.570626        -0.923149
 H        -0.031240        -1.075492        -0.503779
 H         3.263497         2.662867         1.422403
 H         4.302374         1.126329        -0.608014
