19
Iteration:  3807charge 0 multiplicity 1
 C         4.272079         0.649170         2.724911
 C         3.301069         0.657399         1.530789
 C         1.791602         0.611623         1.962281
 C         1.307552         0.465345         0.518143
 C        -0.127443         0.123348         0.016391
 O         1.857735         1.485408        -0.245480
 C         3.198825         1.292532         0.105567
 C         3.435331        -0.201125         0.203231
 O         2.105017        -0.743865         0.047389
 H         3.869292         1.383389         3.445145
 H         4.404802        -0.393054         3.130684
 H         5.223529         1.003919         2.303835
 H         1.545843        -0.281252         2.578131
 H         1.412336         1.572408         2.331543
 H        -0.061397        -0.281670        -1.064302
 H        -0.690453        -0.600089         0.580121
 H        -0.626437         1.147338        -0.019963
 H         3.963320         2.044989        -0.170321
 H         4.325457        -0.667135        -0.113979
