19
Iteration:  1688
 C         4.379694         0.564569         2.530991
 C         3.273937         0.499381         1.566229
 C         1.731315         0.097888         1.874123
 C         1.347296         0.375035         0.453314
 C        -0.166648         0.227093         0.073827
 O         1.870659         1.665007         0.121540
 C         3.150815         1.491436         0.473032
 C         3.384769        -0.092222         0.126187
 O         2.154411        -0.535781        -0.352952
 H         3.894916         1.082012         3.438639
 H         4.652878        -0.391214         2.968917
 H         5.138108         1.110364         2.082115
 H         1.535372        -0.931047         2.181764
 H         1.251258         0.834488         2.519908
 H        -0.763794         1.014636         0.559516
 H        -0.144847         0.230546        -0.984879
 H        -0.353019        -0.840753         0.382144
 H         3.811881         2.375412         0.263295
 H         4.281849        -0.524613        -0.315252
