19
Iteration:  1980charge 0 multiplicity 1
 C         4.413275         0.751044         2.651808
 C         3.266704         0.420336         1.544098
 C         1.733991         0.345307         1.891298
 C         1.297589         0.448148         0.459300
 C        -0.157729         0.144966         0.071725
 O         1.918187         1.698982        -0.053524
 C         3.267483         1.326184         0.344183
 C         3.305483        -0.205325         0.209912
 O         2.082583        -0.645554        -0.241796
 H         4.039342         1.786969         2.889368
 H         4.245983        -0.116996         3.447771
 H         5.520605         0.828900         2.369725
 H         1.465854        -0.654960         2.280397
 H         1.257961         1.136925         2.524275
 H        -0.813377         0.321339         0.936788
 H        -0.396250         0.793397        -0.810569
 H        -0.224747        -0.966701        -0.109940
 H         4.186753         1.831829         0.136235
 H         4.102924        -0.601786        -0.442622
