19
Iteration:   204
 C         4.531403        -0.081992         2.366805
 C         3.401533         0.224792         1.341632
 C         2.099654        -0.628275         1.427800
 C         1.278209         0.302230         0.459214
 C        -0.172693        -0.005431        -0.096950
 O         1.446648         1.588576         1.073644
 C         2.892235         1.590058         1.081529
 C         3.380527         0.919540        -0.085885
 O         2.271202         0.394991        -0.749850
 H         4.286141        -0.075494         3.424336
 H         4.674113        -1.157357         2.221828
 H         5.518988         0.452171         2.223272
 H         2.194403        -1.633107         1.048132
 H         1.651480        -0.408440         2.487028
 H        -0.446732        -1.002948         0.304141
 H        -1.024594         0.659329         0.080770
 H         0.012437        -0.100763        -1.178238
 H         3.262979         2.532363         1.455558
 H         4.361699         1.169227        -0.591588
