19
Iteration:  4984
 C         4.346195         0.686154         2.621799
 C         3.234795         0.719162         1.596020
 C         1.760517         0.481405         1.941930
 C         1.256041         0.299299         0.453457
 C        -0.218031         0.337164         0.020322
 O         1.877134         1.431494        -0.281502
 C         3.187020         1.317632         0.077782
 C         3.450175        -0.116220         0.386471
 O         2.182171        -0.866782         0.033809
 H         4.297109         1.600931         3.280481
 H         4.552463        -0.293823         3.142509
 H         5.235210         0.897948         1.971400
 H         1.571495        -0.385656         2.627769
 H         1.421017         1.413744         2.472897
 H        -0.406400         0.497264        -1.060682
 H        -0.833921        -0.400054         0.511920
 H        -0.358529         1.343151         0.432447
 H         3.941158         2.115380        -0.174105
 H         4.348079        -0.558191         0.149060
