19
Iteration:   347
 C         4.624334        -0.088480         2.302431
 C         3.322359         0.190458         1.521214
 C         1.941205        -0.554427         1.409584
 C         1.256800         0.336630         0.391343
 C        -0.187436        -0.028649         0.075571
 O         1.467699         1.639866         0.781595
 C         2.885561         1.690021         1.086097
 C         3.411915         0.742912         0.102795
 O         2.356309         0.349712        -0.772822
 H         4.557057         0.029400         3.377625
 H         4.855968        -1.128985         2.119800
 H         5.496014         0.537870         1.906104
 H         2.261572        -1.598934         1.163877
 H         1.364238        -0.272550         2.343361
 H        -0.848521         0.797770         0.322599
 H        -0.303381        -0.211922        -1.018067
 H        -0.349105        -1.004388         0.571948
 H         3.274736         2.655999         1.291272
 H         4.357723         0.922065        -0.308409
