19
Iteration:  3438charge 0 multiplicity 1
 C         4.361150         0.892568         2.529102
 C         3.160573         0.512555         1.636744
 C         1.658292         0.506521         1.796422
 C         1.331138         0.425783         0.327427
 C        -0.163462         0.256561         0.157855
 O         1.976095         1.609817        -0.230409
 C         3.293649         1.261563         0.332297
 C         3.375818        -0.416577         0.376868
 O         2.120706        -0.820211        -0.070188
 H         4.056771         1.839606         3.041693
 H         4.698785         0.402601         3.472581
 H         5.273308         0.896873         1.909408
 H         1.120086        -0.248936         2.416978
 H         1.338319         1.527903         2.145531
 H        -0.363982        -0.319965        -0.718269
 H        -0.562632        -0.298884         0.978932
 H        -0.767281         1.170306         0.092313
 H         4.089914         1.982789         0.044137
 H         4.283904        -0.887935         0.107878
