19
Iteration:   419charge 0 multiplicity 1
 C         4.488841         0.056081         2.353937
 C         3.373588         0.194982         1.454687
 C         2.147776        -0.581805         1.531731
 C         1.307140         0.315403         0.383098
 C        -0.167040         0.073959        -0.098510
 O         1.514154         1.696928         0.865516
 C         2.928322         1.612788         1.099070
 C         3.368420         0.581872        -0.017008
 O         2.175041         0.273096        -0.701690
 H         4.108449         0.285192         3.371463
 H         5.056636        -0.969964         2.252374
 H         5.267805         0.783885         2.143019
 H         2.130314        -1.582187         1.252271
 H         1.698373        -0.214319         2.457691
 H        -0.550357        -0.873800         0.310122
 H        -0.910227         0.840048         0.178861
 H        -0.031596        -0.010338        -1.192984
 H         3.564534         2.471532         1.341560
 H         4.180737         0.725953        -0.636378
