19
Iteration:  2159
 C         4.378452         0.834808         2.614490
 C         3.303438         0.479133         1.585943
 C         1.785704         0.455235         1.863389
 C         1.254336         0.378620         0.438368
 C        -0.270594         0.369715         0.041478
 O         1.942779         1.523896        -0.127207
 C         3.231583         1.306452         0.328027
 C         3.394935        -0.278125         0.265581
 O         2.089580        -0.814336        -0.134314
 H         4.111633         1.904978         2.906261
 H         4.388261         0.315488         3.560585
 H         5.435401         0.907035         2.305145
 H         1.620937        -0.478568         2.344777
 H         1.473441         1.279921         2.438235
 H        -0.488758         0.878235        -0.875215
 H        -0.480934        -0.606332        -0.275850
 H        -0.841476         0.525528         0.924323
 H         3.961214         2.073569        -0.019900
 H         4.287109        -0.738271        -0.205816
