19
Iteration:  4006charge 0 multiplicity 1
 C         4.266363         0.637846         2.583572
 C         3.191815         0.614520         1.592518
 C         1.686331         0.571716         1.883287
 C         1.278806         0.355279         0.416947
 C        -0.226407         0.238217         0.073354
 O         1.911885         1.502691        -0.283785
 C         3.311270         1.292020         0.215503
 C         3.485716        -0.157378         0.269952
 O         2.223925        -0.737797         0.075721
 H         4.278419         1.315940         3.487153
 H         4.497623        -0.365227         3.004628
 H         5.098162         1.023628         1.951913
 H         1.361478        -0.230198         2.563825
 H         1.339972         1.507299         2.366235
 H        -0.419841        -0.193067        -0.912348
 H        -0.751005        -0.453106         0.820768
 H        -0.841733         1.116180         0.283343
 H         3.918656         2.112972        -0.241223
 H         4.343460        -0.727230         0.146874
