19
Iteration:  4503
 C         4.344727         0.762597         2.527788
 C         3.237033         0.531919         1.595550
 C         1.721134         0.521059         1.902094
 C         1.328458         0.416206         0.404595
 C        -0.093548         0.207154         0.163914
 O         1.915454         1.545335        -0.233513
 C         3.245865         1.333869         0.271807
 C         3.337423        -0.239131         0.336166
 O         2.124826        -0.763194        -0.130940
 H         4.125359         1.722926         3.062703
 H         4.268452         0.038342         3.369315
 H         5.374126         0.646879         2.155670
 H         1.284625        -0.360253         2.403323
 H         1.287872         1.332395         2.496942
 H        -0.358771         0.240061        -0.837335
 H        -0.380669        -0.822535         0.580559
 H        -0.912003         0.744886         0.606969
 H         3.883364         2.219500         0.230455
 H         4.253504        -0.707789        -0.102411
