19
Iteration:  3939
 C         4.222168         0.852121         2.652266
 C         3.335854         0.489387         1.531151
 C         1.865783         0.498949         1.927905
 C         1.246395         0.451324         0.456706
 C        -0.097509         0.203028        -0.021897
 O         1.884160         1.553847        -0.162790
 C         3.260440         1.353404         0.225648
 C         3.418242        -0.310618         0.213854
 O         2.019724        -0.795209         0.016316
 H         4.209157         1.963581         2.892000
 H         4.071152         0.375927         3.655978
 H         5.289333         0.786105         2.386553
 H         1.655502        -0.351735         2.646184
 H         1.615020         1.401116         2.515837
 H        -0.142506         0.540714        -1.109365
 H        -0.380438        -0.828260         0.126952
 H        -0.903126         0.744317         0.451504
 H         4.024814         1.893323        -0.248352
 H         3.999564        -1.144338        -0.233941
