19
Iteration:  1762
 C         4.388078         0.459558         2.571956
 C         3.248631         0.471741         1.571267
 C         1.684458         0.277773         1.911909
 C         1.278755         0.382085         0.434789
 C        -0.193717         0.027649         0.091030
 O         1.878982         1.820560         0.107364
 C         3.156652         1.430255         0.317366
 C         3.425374        -0.044343         0.168187
 O         2.205475        -0.518973        -0.314777
 H         4.460412         1.456812         3.148730
 H         4.087330        -0.313556         3.312695
 H         5.314122         0.271275         2.053254
 H         1.563938        -0.672880         2.381972
 H         1.232103         1.072692         2.481778
 H        -0.313659        -0.823564         0.854827
 H        -0.803646         0.893445         0.138686
 H        -0.143215        -0.393899        -0.960413
 H         4.019951         2.130724         0.023044
 H         4.290468        -0.508915        -0.347580
