19
Iteration:  4787
 C         4.371368         0.649933         2.627186
 C         3.223192         0.652426         1.626402
 C         1.687958         0.595730         1.859931
 C         1.315889         0.382290         0.381862
 C        -0.204912         0.124901         0.159673
 O         1.862334         1.514387        -0.233094
 C         3.309093         1.386238         0.165680
 C         3.423244        -0.229643         0.357022
 O         2.136639        -0.717844        -0.094431
 H         4.174511         1.251743         3.501592
 H         4.450486        -0.358774         3.002457
 H         5.311557         0.953395         2.231173
 H         1.569687        -0.148368         2.698422
 H         1.293206         1.498430         2.407280
 H        -0.272798         0.107045        -0.965684
 H        -0.536352        -0.798764         0.474275
 H        -0.838446         0.920202         0.549710
 H         4.052781         1.972538        -0.341430
 H         4.220457        -0.907691         0.110108
