19
Iteration:  3827
 C         4.201839         0.656149         2.687298
 C         3.317024         0.682195         1.444566
 C         1.838946         0.617214         1.843910
 C         1.352701         0.331400         0.514599
 C        -0.062512         0.070436        -0.021956
 O         1.854767         1.658731        -0.101139
 C         3.294848         1.395231         0.070921
 C         3.301893        -0.233571         0.289905
 O         2.060496        -0.802030         0.114281
 H         3.682164         1.139730         3.514196
 H         4.107579        -0.460344         2.799975
 H         5.256432         0.993721         2.565070
 H         1.894710        -0.156284         2.623939
 H         1.540172         1.623842         2.219667
 H         0.024514        -0.378609        -0.953060
 H        -0.519534        -0.580330         0.628208
 H        -0.665696         0.960713        -0.184371
 H         4.032338         1.794976        -0.676402
 H         3.984246        -0.892316        -0.123945
