19
Iteration:  2279charge 0 multiplicity 1
 C         4.363844         0.822284         2.686018
 C         3.265106         0.542376         1.602918
 C         1.752389         0.508246         1.925291
 C         1.281834         0.380317         0.456228
 C        -0.127508         0.179374         0.079688
 O         1.968593         1.604659        -0.270408
 C         3.311058         1.262698         0.212101
 C         3.294436        -0.262790         0.217368
 O         2.000950        -0.752827        -0.037885
 H         4.332306         1.916916         2.985437
 H         4.318442         0.244818         3.584628
 H         5.381087         0.661995         2.280224
 H         1.511994        -0.316795         2.560110
 H         1.419916         1.469174         2.264203
 H        -0.841131         0.480049         0.870783
 H        -0.286497         0.819269        -0.771974
 H        -0.259514        -0.845913        -0.271148
 H         4.203778         1.829757        -0.210842
 H         3.929189        -1.105561         0.049084
