19
Iteration:  2102charge 0 multiplicity 1
 C         4.405566         0.656189         2.667115
 C         3.272888         0.532468         1.590441
 C         1.750647         0.496599         1.886267
 C         1.297475         0.399126         0.405751
 C        -0.257919         0.177417         0.066631
 O         1.864505         1.620683        -0.202901
 C         3.250589         1.298117         0.266033
 C         3.436116        -0.172721         0.236717
 O         2.134916        -0.667149        -0.066979
 H         4.464396         1.617240         3.239431
 H         4.117684        -0.181232         3.408707
 H         5.308425         0.325353         2.167998
 H         1.410644        -0.374526         2.458409
 H         1.482721         1.349610         2.511845
 H        -0.399007        -0.419468        -0.855772
 H        -0.572473        -0.343201         1.019427
 H        -0.866247         1.018986        -0.230399
 H         3.897144         1.946806        -0.237340
 H         4.222787        -0.860307        -0.028756
