19
Iteration:  2587charge 0 multiplicity 1
 C         4.371721         0.757033         2.702060
 C         3.267083         0.608974         1.583051
 C         1.799801         0.656365         1.951525
 C         1.214525         0.405202         0.440551
 C        -0.173552         0.186099         0.015239
 O         2.020173         1.494661        -0.255310
 C         3.305215         1.231941         0.215692
 C         3.306506        -0.270716         0.298000
 O         2.009423        -0.750396        -0.055813
 H         3.872423         1.591867         3.310827
 H         4.625824        -0.131447         3.281819
 H         5.204582         1.283893         2.159545
 H         1.767554        -0.082030         2.740550
 H         1.466602         1.628386         2.287286
 H        -0.743033        -0.133510         0.912865
 H        -0.695210         1.031813        -0.597135
 H        -0.206170        -0.705802        -0.585228
 H         4.051080         1.769092        -0.309071
 H         4.006824        -1.087869        -0.131870
