19
Iteration:  2193charge 0 multiplicity 1
 C         4.324669         0.729798         2.594275
 C         3.207842         0.532838         1.564287
 C         1.712200         0.558797         1.949266
 C         1.242481         0.409062         0.472148
 C        -0.140892         0.202230         0.071732
 O         1.991478         1.643980        -0.144093
 C         3.248656         1.193381         0.045995
 C         3.421719        -0.298788         0.344949
 O         2.091100        -0.693430        -0.084362
 H         3.812821         1.474693         3.309983
 H         4.511072        -0.124995         3.183585
 H         5.277536         1.199447         2.219028
 H         1.657897        -0.390319         2.414210
 H         1.265502         1.272769         2.586997
 H        -0.617622         1.075004        -0.264073
 H         0.020846        -0.618046        -0.490312
 H        -0.789510        -0.102129         0.862894
 H         4.059082         2.022750        -0.145361
 H         4.201070        -0.969036         0.028271
