19
Iteration:  1928
 C         4.341157         0.455535         2.654886
 C         3.242660         0.619935         1.561782
 C         1.836892         0.364968         1.901705
 C         1.300773         0.317312         0.438765
 C        -0.171958         0.297023         0.052754
 O         1.811484         1.594251        -0.075171
 C         3.105678         1.471762         0.315314
 C         3.451580         0.039076         0.214788
 O         2.199137        -0.784051        -0.181412
 H         4.658946         1.500903         3.008575
 H         4.075395        -0.381706         3.335495
 H         5.153738         0.180520         2.046258
 H         1.640174        -0.574989         2.401769
 H         1.420271         1.261369         2.350347
 H        -0.507692         1.325441        -0.131181
 H        -0.343218        -0.554058        -0.731523
 H        -0.695166        -0.234289         0.913387
 H         3.760689         2.235116        -0.064566
 H         4.304033        -0.529843        -0.136790
