19
Iteration:  2158
 C         4.379680         0.832044         2.615574
 C         3.303027         0.485435         1.583255
 C         1.783458         0.447905         1.865520
 C         1.259799         0.373382         0.445263
 C        -0.272078         0.381050         0.038753
 O         1.938253         1.526674        -0.126768
 C         3.228410         1.302042         0.311617
 C         3.397229        -0.276854         0.270398
 O         2.098208        -0.814339        -0.133041
 H         4.128704         1.890059         2.883240
 H         4.386596         0.314728         3.592240
 H         5.419881         0.893512         2.301885
 H         1.593860        -0.482252         2.366740
 H         1.463929         1.281886         2.440024
 H        -0.501871         0.854818        -0.891414
 H        -0.527480        -0.617952        -0.283067
 H        -0.803009         0.547324         0.929444
 H         3.921650         2.069042         0.024736
 H         4.299560        -0.723712        -0.206263
