19
Iteration:  2083charge 0 multiplicity 1
 C         4.350169         0.575428         2.625224
 C         3.251596         0.527232         1.587841
 C         1.747150         0.582815         1.870265
 C         1.293259         0.432964         0.444916
 C        -0.123959         0.049654         0.120031
 O         1.940125         1.616129        -0.097149
 C         3.304293         1.324523         0.180178
 C         3.306973        -0.181693         0.284334
 O         2.056968        -0.645257        -0.153860
 H         4.045439         1.473891         3.330840
 H         4.379750        -0.242565         3.356073
 H         5.369081         0.751435         2.197685
 H         1.406984        -0.101379         2.629093
 H         1.392932         1.546838         2.172107
 H        -0.056119        -0.875547        -0.524937
 H        -0.756557        -0.104659         0.981627
 H        -0.494876         0.838862        -0.559944
 H         3.985075         2.110765        -0.103137
 H         4.139713        -0.684690        -0.251950
