19
Iteration:  4253charge 0 multiplicity 1
 C         4.266709         0.884879         2.635303
 C         3.301736         0.397192         1.545512
 C         1.766728         0.496584         1.962527
 C         1.276017         0.381956         0.510285
 C        -0.110549         0.170542         0.030544
 O         1.959762         1.625498        -0.121428
 C         3.261404         1.235355         0.121966
 C         3.380191        -0.222830         0.187694
 O         2.055290        -0.695990        -0.017265
 H         4.075636         1.893441         2.929436
 H         4.050387         0.410872         3.575563
 H         5.284644         0.724165         2.400531
 H         1.373078        -0.397638         2.457271
 H         1.748222         1.433383         2.455934
 H        -0.099164        -0.291873        -0.908265
 H        -0.698731        -0.668470         0.560309
 H        -0.758233         1.019105        -0.035645
 H         3.945443         1.896017        -0.316340
 H         4.053075        -1.039794        -0.256641
