19
Iteration:   313
 C         4.483234        -0.086445         2.182154
 C         3.288920         0.284679         1.417755
 C         2.051998        -0.525460         1.468320
 C         1.300280         0.281024         0.432327
 C        -0.053180        -0.063305        -0.093717
 O         1.509449         1.687883         0.935838
 C         2.910192         1.713814         1.159447
 C         3.397794         0.763860        -0.009374
 O         2.233382         0.272349        -0.650416
 H         4.158999        -0.316500         3.162539
 H         4.814242        -1.070770         1.780331
 H         5.322239         0.669467         2.192016
 H         2.116891        -1.632802         1.446475
 H         1.551455        -0.483672         2.516273
 H        -0.410925         0.743455        -0.744379
 H         0.179164        -0.957112        -0.701763
 H        -0.879207        -0.172576         0.637167
 H         3.293616         2.679284         1.553258
 H         4.324818         0.783660        -0.505516
