19
Iteration:  3849charge 0 multiplicity 1
 C         4.335393         0.661957         2.659141
 C         3.262124         0.664096         1.572081
 C         1.799747         0.639662         1.884104
 C         1.281073         0.339593         0.454731
 C        -0.219633         0.097940         0.029921
 O         1.921069         1.565074        -0.234703
 C         3.226295         1.286050         0.161427
 C         3.404576        -0.230365         0.351587
 O         2.122820        -0.702358        -0.033374
 H         3.956314         1.347172         3.433167
 H         4.331412        -0.367108         3.109035
 H         5.341523         1.056336         2.411646
 H         1.552192        -0.240882         2.520953
 H         1.553825         1.570245         2.427521
 H        -0.223022        -0.295820        -0.943239
 H        -0.594564        -0.587829         0.708831
 H        -0.857805         0.974905         0.001552
 H         3.876825         2.080096        -0.265381
 H         4.207441        -0.871091         0.091904
