19
Iteration:   966
 C         4.581696         0.076150         2.392483
 C         3.243239         0.363451         1.602790
 C         1.781360        -0.120743         1.775874
 C         1.267273         0.324816         0.321274
 C        -0.168812         0.000491         0.012340
 O         1.616324         1.771653         0.513145
 C         2.983606         1.653229         0.796139
 C         3.496855         0.413496         0.020492
 O         2.317638        -0.142639        -0.551381
 H         4.489834         0.141732         3.519521
 H         4.848143        -0.992776         2.322042
 H         5.359835         0.688702         1.932215
 H         1.901981        -1.245525         1.896947
 H         0.928584         0.161691         2.368037
 H        -0.715188         0.931296        -0.235329
 H        -0.370935        -0.699918        -0.794125
 H        -0.626449        -0.320779         0.977402
 H         3.587300         2.567039         0.733063
 H         4.346271         0.184583        -0.589019
