19
Iteration:   854
 C         4.489014         0.179188         2.455076
 C         3.261221         0.286074         1.490782
 C         1.897088        -0.292559         1.599345
 C         1.361153         0.442911         0.340958
 C        -0.161891         0.013369         0.090256
 O         1.619180         1.771054         0.577789
 C         2.982536         1.593101         0.866982
 C         3.427222         0.344014         0.041340
 O         2.248778        -0.088773        -0.648570
 H         4.135510         0.598757         3.495698
 H         4.688120        -0.786313         2.788315
 H         5.289914         0.778299         2.167175
 H         2.125566        -1.330361         1.398676
 H         1.445746        -0.130728         2.623034
 H        -0.466446        -1.032626         0.298219
 H        -0.614838         0.718505         0.823819
 H        -0.460921         0.336158        -0.898782
 H         3.553317         2.514026         1.075464
 H         4.253576         0.630161        -0.687491
