19
Iteration:   720
 C         4.398831         0.188392         2.519132
 C         3.365163         0.205493         1.468473
 C         2.012580        -0.404043         1.671208
 C         1.296539         0.360556         0.467360
 C        -0.123841         0.043986        -0.029478
 O         1.598467         1.726600         0.741762
 C         3.056267         1.567204         0.853576
 C         3.382996         0.464267        -0.137232
 O         2.171582         0.084766        -0.706972
 H         4.014949         0.762100         3.394286
 H         4.677289        -0.770233         2.903914
 H         5.311432         0.752660         2.251494
 H         2.058273        -1.475258         1.365863
 H         1.511648        -0.242446         2.624986
 H        -0.346666         0.586929        -0.938626
 H        -0.365902        -0.961337        -0.312547
 H        -0.855058         0.474170         0.659334
 H         3.660463         2.406562         1.159468
 H         4.262054         0.384864        -0.845448
