19
Iteration:  2568
 C         4.323572         0.712099         2.627490
 C         3.247602         0.738333         1.573769
 C         1.743591         0.628285         1.904943
 C         1.319329         0.387881         0.434485
 C        -0.244140         0.190005         0.064548
 O         1.990282         1.520298        -0.277452
 C         3.294753         1.229926         0.119171
 C         3.382013        -0.263020         0.364113
 O         2.076006        -0.760036         0.047678
 H         4.110680         1.216095         3.543697
 H         4.310874        -0.362389         2.711778
 H         5.279965         1.002141         2.219938
 H         1.336380        -0.250097         2.447409
 H         1.267476         1.559049         2.281302
 H        -0.840350        -0.151580         0.937924
 H        -0.409152         1.175825        -0.322598
 H        -0.402938        -0.590841        -0.714188
 H         4.165373         1.745437        -0.165516
 H         4.242619        -1.012439         0.239855
