19
Iteration:  4978
 C         4.371895         0.669525         2.598651
 C         3.201105         0.763686         1.612361
 C         1.778182         0.548603         1.945494
 C         1.320282         0.320468         0.476085
 C        -0.214332         0.359606         0.029724
 O         1.843886         1.420552        -0.267446
 C         3.195960         1.276643         0.101405
 C         3.435994        -0.116412         0.339091
 O         2.209765        -0.875983         0.028976
 H         4.149945         1.399550         3.366579
 H         4.371180        -0.325464         3.016920
 H         5.377246         0.914826         2.237607
 H         1.537250        -0.370342         2.546994
 H         1.193092         1.341000         2.469636
 H        -0.333486         0.367451        -1.049931
 H        -0.898243        -0.529375         0.297687
 H        -0.589968         1.302461         0.486194
 H         3.801337         2.014753        -0.322002
 H         4.386655        -0.726510         0.097660
