19
Iteration:   913charge 0 multiplicity 1
 C         4.459700         0.191454         2.576477
 C         3.375446         0.330817         1.483290
 C         1.981231        -0.327138         1.643179
 C         1.249842         0.351006         0.450958
 C        -0.138628         0.071674        -0.031555
 O         1.617528         1.758768         0.640417
 C         2.995542         1.664616         0.749910
 C         3.437596         0.435384        -0.076474
 O         2.151051        -0.187619        -0.614369
 H         4.148675         0.702186         3.424130
 H         4.661283        -0.896861         2.736894
 H         5.483449         0.540297         2.289211
 H         1.890536        -1.428760         1.799539
 H         1.574393         0.180179         2.496656
 H        -0.016124         0.114529        -1.103874
 H        -0.680034        -0.745790         0.408212
 H        -0.714454         0.977739         0.228123
 H         3.629653         2.507528         0.998292
 H         4.305775         0.301018        -0.670092
