19
Iteration:  1714
 C         4.378775         0.482255         2.657229
 C         3.313149         0.519927         1.619619
 C         1.834888         0.108441         1.937489
 C         1.328144         0.331946         0.394690
 C        -0.214912         0.276561         0.014488
 O         1.694740         1.657452         0.085689
 C         3.133585         1.441004         0.309098
 C         3.440041         0.039170         0.096483
 O         2.214346        -0.586105        -0.276305
 H         4.324510         1.178353         3.443096
 H         4.374619        -0.470540         3.215223
 H         5.291930         0.658120         1.948822
 H         1.666922        -0.819938         2.556176
 H         1.514062         1.041886         2.459898
 H        -0.664727         0.520389         0.975679
 H        -0.255124         1.066061        -0.785324
 H        -0.534751        -0.673962        -0.336763
 H         3.741271         2.291742         0.150055
 H         4.346477        -0.343987        -0.360732
