19
Iteration:  4048charge 0 multiplicity 1
 C         4.337460         0.879914         2.722500
 C         3.319136         0.511864         1.552727
 C         1.877327         0.504366         1.989425
 C         1.258981         0.437538         0.501417
 C        -0.196510         0.198260        -0.073431
 O         1.914090         1.525580        -0.144654
 C         3.218679         1.224692         0.176159
 C         3.388264        -0.295535         0.180169
 O         2.035890        -0.699617        -0.052694
 H         3.854644         1.771526         3.248073
 H         4.350172         0.118000         3.549376
 H         5.289690         1.181746         2.258237
 H         1.550725        -0.477479         2.479499
 H         1.491789         1.323120         2.655519
 H         0.117353        -0.278017        -1.008226
 H        -0.799818        -0.472794         0.563196
 H        -0.673458         1.165803        -0.120319
 H         4.038670         1.863978        -0.256499
 H         4.059414        -0.972253        -0.232641
