19
Iteration:  1703
 C         4.354957         0.528678         2.579127
 C         3.255967         0.466922         1.525956
 C         1.870046         0.213492         1.866433
 C         1.237851         0.296837         0.402565
 C        -0.215366         0.260685         0.022640
 O         1.734503         1.643763         0.155659
 C         3.179284         1.471066         0.423296
 C         3.480351        -0.026643         0.173787
 O         2.225570        -0.579419        -0.309364
 H         4.090376         1.244768         3.305176
 H         4.563533        -0.501147         2.919348
 H         5.437550         0.824979         2.195985
 H         1.814146        -0.836490         2.283113
 H         1.377392         0.876490         2.613490
 H        -0.753960         0.844769         0.766494
 H        -0.459477         0.889033        -0.889943
 H        -0.666810        -0.713843        -0.091499
 H         3.827340         2.309306         0.214915
 H         4.368470        -0.518403        -0.216308
