19
Iteration:   134
 C         4.624168        -0.050585         2.163045
 C         3.305696         0.165264         1.445708
 C         2.039287        -0.649761         1.352295
 C         1.316956         0.295349         0.297011
 C        -0.153834         0.015274         0.075273
 O         1.353214         1.618703         0.882901
 C         2.740644         1.541920         1.256528
 C         3.480397         0.854436         0.121055
 O         2.408860         0.475511        -0.713903
 H         4.611598        -0.320110         3.166554
 H         4.990059        -0.970389         1.680303
 H         5.263134         0.744048         2.018870
 H         2.094150        -1.678658         0.930843
 H         1.518726        -0.469965         2.236803
 H        -0.714676         0.859545         0.377686
 H        -0.414110        -0.166899        -0.962744
 H        -0.440797        -0.899799         0.563815
 H         3.197326         2.401221         1.817067
 H         4.369338         0.955444        -0.479882
