19
Iteration:    42
 C         4.556095        -0.188321         2.090905
 C         3.332388         0.219857         1.384332
 C         2.121609        -0.660323         1.233734
 C         1.348474         0.285007         0.288650
 C        -0.078343        -0.058407         0.001897
 O         1.331766         1.529452         1.120666
 C         2.746881         1.718377         1.273876
 C         3.428081         0.875651         0.124203
 O         2.343943         0.568321        -0.714987
 H         4.449973        -0.131257         3.214078
 H         4.783710        -1.179890         1.907797
 H         5.377325         0.545256         1.806649
 H         2.418123        -1.498324         0.666217
 H         1.599471        -0.809614         2.213542
 H        -0.144292        -1.202178        -0.083940
 H        -0.619131         0.186853         0.948750
 H        -0.657312         0.487977        -0.809727
 H         3.106005         2.590497         1.826727
 H         4.317882         1.170962        -0.364189
