19
Iteration:   985charge 0 multiplicity 1
 C         4.447007         0.078235         2.386525
 C         3.304191         0.358132         1.558042
 C         1.903889        -0.198760         1.726564
 C         1.311839         0.309259         0.449308
 C        -0.151514         0.110200         0.063245
 O         1.576383         1.715477         0.423286
 C         2.966200         1.743562         0.710254
 C         3.435184         0.395679         0.087055
 O         2.327710        -0.188905        -0.548350
 H         4.171242         0.241233         3.567874
 H         4.732494        -0.977335         2.304931
 H         5.335032         0.584618         2.075874
 H         1.745842        -1.299055         1.791229
 H         1.564495         0.309147         2.719617
 H        -0.733405         1.082585         0.205066
 H        -0.173025        -0.206716        -1.011812
 H        -0.605770        -0.748805         0.585920
 H         3.466139         2.659350         0.983268
 H         4.344143         0.379280        -0.423151
