19
Iteration:   566charge 0 multiplicity 1
 C         4.450131         0.113556         2.397171
 C         3.297233         0.300492         1.514770
 C         2.031816        -0.434857         1.448945
 C         1.357326         0.300275         0.312319
 C        -0.220545         0.136761         0.100704
 O         1.525399         1.692543         0.790865
 C         2.871226         1.636818         1.012255
 C         3.508631         0.533330         0.016111
 O         2.328058         0.015685        -0.726969
 H         4.365143         0.508765         3.464826
 H         4.773362        -0.938957         2.291210
 H         5.343170         0.665420         1.897999
 H         1.981608        -1.520646         1.119502
 H         1.549803        -0.314984         2.410445
 H        -0.814232         0.573078         0.916760
 H        -0.406270         0.508166        -0.910927
 H        -0.571198        -0.893971         0.037555
 H         3.243333         2.576205         1.388061
 H         4.244598         0.479314        -0.686443
