19
Iteration:   128charge 0 multiplicity 1
 C         4.588790        -0.037192         2.137035
 C         3.259633         0.172035         1.469642
 C         2.035483        -0.699859         1.354093
 C         1.393022         0.308378         0.275627
 C        -0.071141         0.054074         0.060553
 O         1.380210         1.608464         0.903449
 C         2.763890         1.543373         1.283270
 C         3.446379         0.876955         0.107421
 O         2.336314         0.441915        -0.737357
 H         4.520753        -0.346157         3.261915
 H         5.080960        -0.930627         1.648135
 H         5.316400         0.878397         2.046941
 H         2.097652        -1.722549         0.993261
 H         1.369021        -0.689397         2.336478
 H        -0.689998         0.989032         0.257477
 H        -0.304617        -0.308891        -0.961037
 H        -0.341886        -0.728494         0.832421
 H         3.073936         2.420099         1.769252
 H         4.327935         1.042289        -0.512063
