19
Iteration:  2749
 C         4.261708         0.755219         2.492798
 C         3.134318         0.624225         1.671147
 C         1.735642         0.623181         1.902629
 C         1.316828         0.289514         0.489675
 C        -0.111385         0.395703         0.082600
 O         1.968549         1.422820        -0.348975
 C         3.290783         1.246826         0.127418
 C         3.382270        -0.224138         0.438427
 O         2.119947        -0.837363         0.020943
 H         4.083131         1.489626         3.296806
 H         4.545759        -0.107828         3.060469
 H         5.160045         1.269189         2.130908
 H         1.488210        -0.216086         2.559265
 H         1.263428         1.491337         2.355508
 H        -0.418597        -0.633847        -0.102072
 H        -0.770005         0.732144         0.922089
 H        -0.177400         0.911608        -0.844772
 H         3.962133         2.026518        -0.204902
 H         4.245636        -0.893658         0.181641
