19
Iteration:  2994
 C         4.294235         0.780665         2.589996
 C         3.270411         0.596705         1.550635
 C         1.709884         0.579759         1.946394
 C         1.355560         0.367273         0.540582
 C        -0.157061         0.169675         0.027764
 O         1.976824         1.505160        -0.191040
 C         3.311591         1.306660         0.153287
 C         3.345952        -0.302335         0.289314
 O         2.022167        -0.714836        -0.059726
 H         4.166442         1.719570         3.194546
 H         4.214905        -0.011825         3.423208
 H         5.378986         0.710487         2.390683
 H         1.336714        -0.259729         2.500785
 H         1.437390         1.536911         2.325189
 H        -0.853590        -0.018747         0.828365
 H        -0.488873         1.080648        -0.536379
 H        -0.287921        -0.612969        -0.663849
 H         4.184944         1.986480        -0.126170
 H         4.279298        -0.786001         0.063797
