19
Iteration:  3149
 C         4.357785         0.734700         2.614830
 C         3.253260         0.655944         1.601715
 C         1.672758         0.554160         1.893169
 C         1.309138         0.351021         0.407518
 C        -0.180275         0.274282         0.081139
 O         1.961825         1.511556        -0.291917
 C         3.272448         1.271598         0.255217
 C         3.407426        -0.235864         0.340463
 O         2.093355        -0.789094        -0.016143
 H         4.100914         1.574872         3.273235
 H         4.583331        -0.274666         3.128280
 H         5.310926         1.076527         2.096940
 H         1.588133        -0.257959         2.583734
 H         1.225590         1.386002         2.386081
 H        -0.584886        -0.726224        -0.013160
 H        -0.838216         0.736199         0.764287
 H        -0.501775         0.698884        -0.882171
 H         3.879755         1.903388        -0.325807
 H         4.165821        -0.975267         0.153318
