19
Iteration:  4688charge 0 multiplicity 1
 C         4.340026         0.841321         2.493857
 C         3.263656         0.471292         1.629956
 C         1.721462         0.469803         1.917871
 C         1.302806         0.435533         0.324388
 C        -0.184188         0.153917         0.091454
 O         1.919933         1.572271        -0.163113
 C         3.254775         1.298161         0.390551
 C         3.358439        -0.249516         0.290618
 O         2.122569        -0.683466        -0.114588
 H         4.445575         1.890701         2.683749
 H         4.258388         0.262355         3.385596
 H         5.237814         0.474618         2.040421
 H         1.434785        -0.510898         2.407094
 H         1.430589         1.262038         2.649414
 H        -0.328654        -0.018015        -0.959784
 H        -0.446828        -0.725262         0.696190
 H        -0.807330         0.916639         0.532691
 H         4.113472         1.956568         0.002415
 H         4.216821        -0.799005        -0.095316
