19
Iteration:  4277charge 0 multiplicity 1
 C         4.324840         0.740212         2.607124
 C         3.244493         0.638145         1.564088
 C         1.759869         0.563895         1.862652
 C         1.284577         0.451173         0.427280
 C        -0.128621         0.114203         0.089503
 O         1.946820         1.551716        -0.147990
 C         3.268061         1.282925         0.255539
 C         3.336657        -0.281282         0.345667
 O         2.073215        -0.698576        -0.142845
 H         4.458160         1.728557         2.989501
 H         4.100542         0.193643         3.496948
 H         5.206757         0.355005         2.157543
 H         1.706013        -0.245951         2.618516
 H         1.302214         1.568139         2.078685
 H        -0.360347        -0.211594        -0.897728
 H        -0.199346        -0.843421         0.697896
 H        -0.946592         0.760110         0.439445
 H         4.045286         1.794598        -0.321249
 H         4.206507        -0.880879         0.134597
