19
Iteration:  1823charge 0 multiplicity 1
 C         4.328530         0.581576         2.647771
 C         3.272750         0.575315         1.555096
 C         1.804877         0.146902         1.801790
 C         1.299118         0.293303         0.400838
 C        -0.134143         0.368193         0.089612
 O         1.828147         1.604310         0.051721
 C         3.144771         1.461724         0.275227
 C         3.403191        -0.030617         0.162911
 O         2.166993        -0.661141        -0.157359
 H         4.127741         1.114887         3.630975
 H         4.736020        -0.429786         2.935024
 H         5.302323         0.985419         2.123437
 H         1.903219        -0.892321         2.237909
 H         1.192788         0.779417         2.494299
 H        -0.442069        -0.482587        -0.506334
 H        -0.861481         0.148831         0.915604
 H        -0.355234         1.209367        -0.508404
 H         3.719899         2.327833        -0.049418
 H         4.242986        -0.626895        -0.213685
