19
Iteration:  1458charge 0 multiplicity 1
 C         4.430777         0.291513         2.566514
 C         3.223906         0.428330         1.608443
 C         1.821412         0.147113         1.890014
 C         1.276108         0.449464         0.421906
 C        -0.114823         0.010249         0.091031
 O         1.772705         1.779728         0.161654
 C         3.138845         1.502136         0.534593
 C         3.347671         0.095231         0.102946
 O         2.210725        -0.368161        -0.501018
 H         4.210664         0.926523         3.515268
 H         4.662706        -0.714281         2.875731
 H         5.192774         0.748410         1.998055
 H         1.717796        -0.933521         2.063800
 H         1.293941         0.745621         2.665128
 H        -0.794920        -0.025610         0.948938
 H        -0.671867         0.511971        -0.712452
 H        -0.093277        -1.005165        -0.180199
 H         3.837592         2.345733         0.358558
 H         4.339461        -0.271888        -0.126138
