19
Iteration:  3055
 C         4.285118         0.688767         2.636774
 C         3.152082         0.688901         1.592108
 C         1.807261         0.530764         1.911206
 C         1.290462         0.301166         0.479006
 C        -0.180643         0.306537         0.035750
 O         1.923854         1.461900        -0.211495
 C         3.259262         1.332501         0.168090
 C         3.460838        -0.206398         0.289587
 O         2.126583        -0.784783        -0.019512
 H         4.585833         1.706409         2.946416
 H         4.035909         0.068301         3.478926
 H         5.096858         0.256577         2.070208
 H         1.476989        -0.284117         2.628214
 H         1.274539         1.468781         2.283706
 H        -0.773786         0.121099         0.985543
 H        -0.425114         1.299895        -0.468423
 H        -0.375810        -0.597792        -0.615161
 H         3.972968         2.009028        -0.258475
 H         4.352897        -0.620345        -0.137774
