19
Iteration:  4593charge 0 multiplicity 1
 C         4.355737         0.801595         2.558338
 C         3.180709         0.572465         1.625556
 C         1.768595         0.521756         1.874754
 C         1.264767         0.362296         0.373584
 C        -0.202314         0.062831         0.180583
 O         2.003922         1.667115        -0.164267
 C         3.324543         1.304769         0.253864
 C         3.330272        -0.284729         0.364400
 O         2.076649        -0.681648        -0.220035
 H         4.202258         1.367695         3.530073
 H         4.729218        -0.270449         2.749842
 H         5.276499         1.225775         2.057044
 H         1.373734        -0.333987         2.424445
 H         1.293739         1.419209         2.298412
 H        -0.430304        -0.128946        -0.955854
 H        -0.430172        -0.783831         0.818724
 H        -0.990053         0.731782         0.618252
 H         4.234608         1.947717         0.006348
 H         4.103903        -1.051894         0.386448
