19
Iteration:   186charge 0 multiplicity 1
 C         4.422798        -0.195599         2.233774
 C         3.384466         0.244317         1.325182
 C         2.177088        -0.563275         1.445684
 C         1.344020         0.257475         0.493844
 C         0.068999        -0.044567        -0.117002
 O         1.414494         1.600201         1.047963
 C         2.835884         1.733743         1.126461
 C         3.384674         0.786960        -0.028295
 O         2.145428         0.425418        -0.683515
 H         3.937433         0.122099         3.285546
 H         4.753887        -1.225763         2.271818
 H         5.337925         0.505975         2.166950
 H         2.367274        -1.570339         0.985056
 H         1.761018        -0.507298         2.422598
 H        -0.638496        -0.627848         0.512063
 H        -0.374729         1.007341        -0.223526
 H         0.109467        -0.424137        -1.173002
 H         3.211371         2.701511         1.593855
 H         4.065270         0.999814        -0.838684
