19
Iteration:  1849charge 0 multiplicity 1
 C         4.344282         0.625973         2.651239
 C         3.286232         0.432826         1.611748
 C         1.842054         0.250458         1.977056
 C         1.291528         0.385735         0.395989
 C        -0.203520         0.258339         0.100338
 O         1.809136         1.602043        -0.031054
 C         3.209691         1.361438         0.327652
 C         3.387180        -0.064426         0.156106
 O         2.172209        -0.583045        -0.304279
 H         3.933046         1.026436         3.521550
 H         4.932772        -0.210514         3.062157
 H         5.099557         1.277229         2.171286
 H         1.669170        -0.710866         2.417922
 H         1.395519         1.030548         2.587563
 H        -0.405575        -0.200925        -0.890863
 H        -0.806541        -0.352516         0.688062
 H        -0.549753         1.304546        -0.000729
 H         3.889953         2.192395         0.000315
 H         4.170008        -0.685431        -0.270353
