19
Iteration:   422charge 0 multiplicity 1
 C         4.490321         0.048892         2.331571
 C         3.351660         0.180917         1.455855
 C         2.120231        -0.565951         1.527486
 C         1.297435         0.324987         0.394880
 C        -0.135511         0.057926        -0.077611
 O         1.523287         1.709604         0.858819
 C         2.911646         1.618238         1.123459
 C         3.389685         0.565488         0.001351
 O         2.195635         0.262630        -0.728080
 H         4.104925         0.297992         3.287042
 H         5.108193        -0.909233         2.218576
 H         5.322171         0.815092         2.139439
 H         2.052936        -1.634933         1.261254
 H         1.605689        -0.219208         2.484938
 H        -0.570472        -0.893289         0.262348
 H        -0.852875         0.806097         0.328816
 H        -0.102124         0.081383        -1.196081
 H         3.407016         2.559383         1.296373
 H         4.224470         0.789098        -0.675140
