19
Iteration:  1964
 C         4.314726         0.670221         2.654503
 C         3.300403         0.508212         1.631336
 C         1.834930         0.314823         1.918039
 C         1.253263         0.423993         0.403451
 C        -0.199979         0.144123         0.078553
 O         1.925875         1.616652        -0.084657
 C         3.240974         1.350337         0.326710
 C         3.402289        -0.153058         0.150768
 O         2.050645        -0.574329        -0.238770
 H         4.436072         1.692826         2.999028
 H         4.224968         0.090277         3.501420
 H         5.242582         0.370035         2.221228
 H         1.541633        -0.620305         2.420818
 H         1.490674         1.080470         2.633729
 H        -0.960881         0.692161         0.666455
 H        -0.284097         0.350044        -0.980656
 H        -0.325749        -0.896015         0.360618
 H         3.918149         2.200175         0.067341
 H         4.250587        -0.758011        -0.115581
