19
Iteration:  3819charge 0 multiplicity 1
 C         4.199969         0.632416         2.662388
 C         3.295328         0.692244         1.498270
 C         1.868631         0.647194         1.886473
 C         1.301878         0.335208         0.489923
 C        -0.001592         0.123686        -0.006889
 O         1.882478         1.599397        -0.131776
 C         3.227912         1.295059         0.074381
 C         3.308738        -0.154962         0.182062
 O         2.062941        -0.802320         0.122513
 H         3.749759         1.202319         3.517842
 H         4.258237        -0.387452         3.137258
 H         5.213960         1.033306         2.675924
 H         1.590805        -0.196710         2.578242
 H         1.561900         1.543651         2.411213
 H         0.188985        -0.434115        -1.044469
 H        -0.452478        -0.572065         0.737888
 H        -0.736841         0.991256        -0.143114
 H         3.871265         1.989399        -0.497842
 H         4.135489        -0.795191        -0.095997
