19
Iteration:  4998charge 0 multiplicity 1
 C         4.370552         0.834290         2.566025
 C         3.212629         0.575042         1.605472
 C         1.745606         0.446880         1.863806
 C         1.317333         0.269040         0.384387
 C        -0.158057         0.349046         0.083781
 O         1.875532         1.464331        -0.282653
 C         3.236672         1.340201         0.247149
 C         3.392849        -0.229175         0.342836
 O         2.141047        -0.741351         0.044292
 H         4.372972         1.723351         3.188509
 H         4.385448        -0.004392         3.268965
 H         5.340970         0.763461         2.054791
 H         1.518932        -0.532267         2.456239
 H         1.234132         1.358892         2.340717
 H        -0.321927         0.069316        -0.916483
 H        -0.791769        -0.403455         0.676740
 H        -0.574784         1.304838         0.333101
 H         3.880682         2.020501        -0.228390
 H         4.199239        -0.922237         0.082912
