19
Iteration:   980
 C         4.465536         0.054534         2.402302
 C         3.296386         0.370473         1.574055
 C         1.846287        -0.210474         1.710637
 C         1.323218         0.329424         0.411862
 C        -0.196674         0.083134         0.052335
 O         1.584978         1.713712         0.438385
 C         2.998957         1.687541         0.739487
 C         3.432864         0.451926         0.086345
 O         2.332204        -0.179089        -0.525235
 H         4.376005         0.324304         3.372044
 H         4.818736        -0.978580         2.193936
 H         5.356808         0.672916         2.058236
 H         1.622215        -1.260623         1.837145
 H         1.665317         0.389514         2.560666
 H        -0.689585         1.018829         0.088704
 H        -0.255318        -0.357151        -0.940655
 H        -0.628819        -0.681805         0.704919
 H         3.477830         2.702916         0.684117
 H         4.494701         0.420686        -0.319600
