19
Iteration:  4755charge 0 multiplicity 1
 C         4.279943         0.677330         2.667422
 C         3.240297         0.658794         1.509913
 C         1.780258         0.471903         1.952868
 C         1.321922         0.272096         0.449888
 C        -0.154968         0.287477         0.028696
 O         1.811788         1.471958        -0.242589
 C         3.246565         1.365920         0.123861
 C         3.447085        -0.115856         0.200819
 O         2.154538        -0.763333         0.153505
 H         3.882399         1.199865         3.512708
 H         4.389076        -0.347706         2.981918
 H         5.247427         1.039040         2.424806
 H         1.834578        -0.486621         2.523966
 H         1.482708         1.420190         2.486661
 H         0.032388         0.761231        -0.965615
 H        -0.681113        -0.604092        -0.009526
 H        -0.655713         0.956021         0.735078
 H         3.852102         1.970287        -0.539021
 H         4.139150        -0.687689        -0.356990
