19
Iteration:    38charge 0 multiplicity 1
 C         4.582965        -0.179221         2.091459
 C         3.337495         0.200437         1.387794
 C         2.152705        -0.654901         1.203079
 C         1.340057         0.300679         0.279910
 C        -0.114325        -0.063805         0.022084
 O         1.327864         1.553712         1.088020
 C         2.728167         1.696576         1.294834
 C         3.393284         0.892111         0.164917
 O         2.354927         0.562057        -0.711209
 H         4.489431        -0.129710         3.185604
 H         4.867602        -1.315940         1.877499
 H         5.389958         0.510065         1.818748
 H         2.441747        -1.578737         0.588195
 H         1.636034        -0.816800         2.170054
 H        -0.150124        -1.145000         0.079178
 H        -0.685327         0.309399         0.877083
 H        -0.584594         0.350125        -0.873093
 H         3.111794         2.636786         1.756208
 H         4.417928         1.054030        -0.249195
