19
Iteration:  3511
 C         4.232950         0.709287         2.644598
 C         3.364005         0.659515         1.507837
 C         1.756323         0.692620         1.974976
 C         1.266827         0.300764         0.559175
 C        -0.098392         0.176940        -0.013022
 O         1.916133         1.523598        -0.236054
 C         3.281621         1.273532         0.054607
 C         3.353811        -0.198642         0.273108
 O         2.081113        -0.793213         0.074644
 H         3.973847         1.394418         3.431509
 H         4.074298        -0.282342         3.146987
 H         5.307461         0.702460         2.442326
 H         1.591379        -0.011970         2.779836
 H         1.409136         1.688656         2.244655
 H         0.072506         0.408640        -1.086073
 H        -0.593829        -0.912300         0.086495
 H        -0.851799         0.871689         0.440307
 H         3.964720         1.976786        -0.445505
 H         4.131619        -0.917460         0.093474
