19
Iteration:  2413
 C         4.327511         0.720833         2.619474
 C         3.233489         0.628609         1.565987
 C         1.770851         0.670929         1.969168
 C         1.247700         0.398680         0.404907
 C        -0.282479         0.200637         0.051895
 O         1.945701         1.465918        -0.349856
 C         3.378113         1.228007         0.181847
 C         3.400832        -0.288343         0.354824
 O         2.131779        -0.685678         0.071465
 H         3.939567         1.415146         3.420196
 H         4.343483        -0.290305         3.071203
 H         5.311021         1.049484         2.220931
 H         1.526284        -0.177744         2.624874
 H         1.417676         1.581962         2.483335
 H        -0.565456        -0.841063         0.025972
 H        -1.008503         0.716641         0.776424
 H        -0.476570         0.549259        -0.972271
 H         4.191543         1.787456        -0.396750
 H         4.093438        -1.012239        -0.012588
