19
Iteration:  2982charge 0 multiplicity 1
 C         4.332745         0.769317         2.700595
 C         3.316428         0.586935         1.573328
 C         1.805047         0.537436         1.960933
 C         1.240098         0.368046         0.412612
 C        -0.139869         0.304446         0.016528
 O         1.884653         1.450897        -0.261217
 C         3.222918         1.245504         0.203036
 C         3.399424        -0.239538         0.343848
 O         2.086935        -0.742389        -0.046261
 H         4.037655         1.768384         3.158085
 H         4.350769        -0.110692         3.394184
 H         5.261687         0.952322         2.138544
 H         1.555038        -0.240959         2.681599
 H         1.443288         1.484619         2.357311
 H        -0.830787         0.089892         0.831454
 H        -0.417439         1.289149        -0.449950
 H        -0.107904        -0.496514        -0.704169
 H         3.872760         1.917178        -0.335863
 H         4.087446        -0.888598        -0.116223
