19
Iteration:  2235
 C         4.375849         0.582794         2.662792
 C         3.250214         0.621425         1.595013
 C         1.687035         0.637464         1.968529
 C         1.315544         0.366840         0.471309
 C        -0.145969         0.260603         0.121928
 O         1.872247         1.447099        -0.380713
 C         3.218993         1.346161         0.139565
 C         3.418372        -0.153700         0.322811
 O         2.133595        -0.790668        -0.013909
 H         4.226359         1.269229         3.539798
 H         4.468577        -0.400222         3.093232
 H         5.378998         0.817483         2.283899
 H         1.272417        -0.243572         2.387243
 H         1.347169         1.573955         2.321964
 H        -0.499837         1.188155         0.595713
 H        -0.217227         0.331080        -0.943163
 H        -0.803925        -0.522928         0.422918
 H         3.890763         2.195105        -0.279986
 H         4.321771        -0.682665         0.069799
