19
Iteration:  4095charge 0 multiplicity 1
 C         4.435370         0.847269         2.589098
 C         3.164735         0.651591         1.678211
 C         1.659655         0.435470         1.938719
 C         1.317205         0.334896         0.406785
 C        -0.193339         0.324706         0.141253
 O         1.899403         1.399068        -0.287736
 C         3.298880         1.281493         0.211699
 C         3.327567        -0.229815         0.442946
 O         2.190131        -0.738482        -0.251658
 H         4.504227         1.872856         3.015920
 H         4.222067         0.258380         3.485877
 H         5.310948         0.545353         1.976751
 H         1.487656        -0.462401         2.504633
 H         1.053407         1.221488         2.412184
 H        -0.414681         0.383202        -0.903338
 H        -0.628359        -0.579945         0.667245
 H        -0.496065         1.164483         0.788719
 H         4.001391         2.033423        -0.007415
 H         4.326360        -0.786799         0.338293
