19
Iteration:  2534charge 0 multiplicity 1
 C         4.339543         0.723830         2.629967
 C         3.211011         0.642313         1.600890
 C         1.745746         0.634464         1.933105
 C         1.271624         0.315538         0.414649
 C        -0.154058         0.261318         0.070316
 O         1.971210         1.447122        -0.379141
 C         3.224379         1.268353         0.193697
 C         3.408248        -0.177216         0.349616
 O         2.111005        -0.791001         0.052857
 H         4.353075         1.456291         3.430174
 H         4.211731        -0.218774         3.109207
 H         5.316011         0.617659         2.140095
 H         1.351380        -0.166379         2.579279
 H         1.427109         1.638370         2.264834
 H        -0.811849        -0.203740         0.809728
 H        -0.565510         1.300754         0.201365
 H        -0.429017         0.019249        -0.935428
 H         4.012130         1.894964        -0.089683
 H         4.184086        -0.891440        -0.033962
