19
Iteration:   532
 C         4.483341         0.065020         2.401174
 C         3.290990         0.194464         1.481738
 C         1.977789        -0.484576         1.566595
 C         1.297848         0.321747         0.408796
 C        -0.107718         0.031888         0.032683
 O         1.573764         1.681795         0.732443
 C         2.911159         1.651565         0.983941
 C         3.461947         0.564768        -0.017657
 O         2.214073         0.241043        -0.691819
 H         4.340512         0.362143         3.455789
 H         4.846982        -1.031355         2.426478
 H         5.290478         0.738271         1.912903
 H         1.952609        -1.575513         1.238960
 H         1.456736        -0.274900         2.515780
 H        -0.603479         0.936473        -0.341968
 H         0.048944        -0.557479        -0.902371
 H        -0.535764        -0.595013         0.813530
 H         3.459176         2.554057         1.255341
 H         4.261930         0.556839        -0.731360
