19
Iteration:  3820
 C         4.200449         0.635350         2.661857
 C         3.293498         0.690225         1.493863
 C         1.867608         0.646082         1.877413
 C         1.309855         0.327923         0.492399
 C        -0.001882         0.122791        -0.009061
 O         1.879184         1.607918        -0.125902
 C         3.238612         1.306494         0.073401
 C         3.298659        -0.158347         0.192062
 O         2.062745        -0.803904         0.124415
 H         3.745020         1.189344         3.525590
 H         4.226655        -0.389574         3.101932
 H         5.208807         1.032294         2.686076
 H         1.622773        -0.189571         2.588909
 H         1.576090         1.540060         2.401095
 H         0.189799        -0.438710        -1.065603
 H        -0.458206        -0.586606         0.766702
 H        -0.746047         0.981178        -0.157666
 H         3.873062         1.964000        -0.526096
 H         4.127772        -0.834263        -0.111711
