19
Iteration:  1622charge 0 multiplicity 1
 C         4.324539         0.324772         2.588972
 C         3.267301         0.542862         1.545533
 C         1.828771         0.147647         1.938879
 C         1.337022         0.248639         0.476793
 C        -0.088322         0.195617         0.087014
 O         1.730739         1.712094         0.088048
 C         3.048728         1.533113         0.326983
 C         3.424658         0.059604         0.122721
 O         2.253874        -0.504457        -0.299868
 H         4.160968         0.997321         3.513849
 H         4.335322        -0.599750         3.114414
 H         5.243429         0.647836         2.293960
 H         1.784797        -0.887997         2.298239
 H         1.298544         0.917829         2.526224
 H        -0.112198         1.006556        -0.694807
 H        -0.384105        -0.708562        -0.367744
 H        -0.813586         0.605440         0.789053
 H         3.644054         2.266788        -0.096624
 H         4.294835        -0.208444        -0.462591
