19
Iteration:  1893
 C         4.352747         0.522274         2.596947
 C         3.230917         0.548575         1.621978
 C         1.786810         0.333675         1.900159
 C         1.283234         0.405017         0.459236
 C        -0.128824         0.148855         0.045768
 O         1.880902         1.680742        -0.031599
 C         3.194055         1.430946         0.273636
 C         3.385257        -0.112018         0.210866
 O         2.104629        -0.600492        -0.231849
 H         4.288833         1.207280         3.444294
 H         4.603651        -0.393036         3.202960
 H         5.299961         0.734579         2.077210
 H         1.621191        -0.619368         2.375249
 H         1.387021         1.082327         2.580369
 H        -0.613966         0.520191        -0.845746
 H        -0.138717        -0.904727        -0.154000
 H        -0.824003         0.352809         0.898456
 H         3.974256         2.052453        -0.078566
 H         4.298029        -0.655408        -0.025264
