19
Iteration:  2856charge 0 multiplicity 1
 C         4.385414         0.699478         2.695667
 C         3.224453         0.684073         1.594263
 C         1.718633         0.605042         1.892763
 C         1.279129         0.355147         0.390293
 C        -0.233863         0.292707         0.057229
 O         1.945234         1.405261        -0.350477
 C         3.249773         1.284088         0.113197
 C         3.414224        -0.234218         0.374685
 O         2.149750        -0.771849         0.094136
 H         4.637406         1.692905         3.004219
 H         4.088552         0.100443         3.582351
 H         5.222725         0.154886         2.245821
 H         1.473478        -0.346794         2.419349
 H         1.338871         1.572526         2.338241
 H        -0.624264        -0.685483        -0.247127
 H        -0.839736         0.590662         0.979873
 H        -0.525220         1.034734        -0.684295
 H         3.863327         2.105691        -0.377185
 H         4.315363        -0.623248        -0.012371
