19
Iteration:  1711
 C         4.381600         0.494526         2.635742
 C         3.303775         0.507022         1.598656
 C         1.849863         0.125542         1.921045
 C         1.302642         0.333484         0.382859
 C        -0.233730         0.269742         0.010397
 O         1.688319         1.655524         0.109308
 C         3.152565         1.432507         0.329705
 C         3.458891         0.032987         0.119501
 O         2.217981        -0.588838        -0.282054
 H         4.205246         1.223466         3.488779
 H         4.416864        -0.471391         3.130407
 H         5.190800         0.657685         1.972221
 H         1.738248        -0.792109         2.533081
 H         1.524654         1.024337         2.497791
 H        -0.593945         0.694150         0.925825
 H        -0.286227         1.039501        -0.757097
 H        -0.565926        -0.746170        -0.322827
 H         3.824358         2.344994         0.189380
 H         4.372268        -0.410738        -0.303422
