19
Iteration:  2554
 C         4.332477         0.602486         2.595700
 C         3.199891         0.661692         1.570632
 C         1.688609         0.640015         1.796124
 C         1.272140         0.433602         0.395419
 C        -0.089315         0.296569         0.108099
 O         1.891119         1.472752        -0.311164
 C         3.275439         1.295610         0.139830
 C         3.364071        -0.244320         0.436573
 O         2.166535        -0.817494         0.088935
 H         4.094571         1.351021         3.422507
 H         4.606515        -0.244361         3.145381
 H         5.317946         0.991644         2.238502
 H         1.556468        -0.221270         2.422127
 H         1.307723         1.506848         2.305635
 H        -0.634553        -0.078006         0.984491
 H        -0.713245         1.215766        -0.144305
 H        -0.130340        -0.374860        -0.718376
 H         3.816901         2.016678        -0.456408
 H         4.254942        -0.906009         0.410136
