19
Iteration:   598
 C         4.486100        -0.002346         2.471802
 C         3.386849         0.215444         1.488434
 C         2.027252        -0.469166         1.691121
 C         1.336519         0.279067         0.494704
 C        -0.058363         0.058840        -0.037510
 O         1.507291         1.748894         0.736131
 C         2.886586         1.708951         0.796513
 C         3.386948         0.617327        -0.111211
 O         2.206328         0.098519        -0.665203
 H         4.231296         0.084835         3.553010
 H         4.833296        -1.083974         2.507628
 H         5.353824         0.726635         2.226981
 H         1.803200        -1.581923         1.575548
 H         1.611104        -0.194105         2.658302
 H        -0.884289        -0.428957         0.530597
 H        -0.504764         1.047305        -0.350732
 H         0.110272        -0.438914        -0.987520
 H         3.319013         2.684683         0.963236
 H         4.196310         0.741607        -0.759326
