19
Iteration:  3122
 C         4.300238         0.850330         2.562488
 C         3.220878         0.502548         1.611079
 C         1.679713         0.530090         1.850955
 C         1.312823         0.440593         0.380282
 C        -0.113368         0.234180         0.120665
 O         1.986335         1.578468        -0.177689
 C         3.300923         1.194407         0.229178
 C         3.396557        -0.342364         0.369760
 O         2.060331        -0.740228        -0.102399
 H         4.029268         1.626021         3.316757
 H         4.803838         0.010186         3.022055
 H         5.064735         1.332249         1.963443
 H         1.402548        -0.303423         2.566407
 H         1.439542         1.566255         2.254296
 H        -0.554125        -0.670855         0.661268
 H        -0.852127         1.053856         0.514896
 H        -0.344780         0.097876        -0.948426
 H         3.929995         2.139082        -0.002215
 H         4.083587        -1.211038         0.202148
