19
Iteration:  3461
 C         4.317413         0.793926         2.551701
 C         3.172253         0.697098         1.654304
 C         1.711607         0.565624         1.926347
 C         1.312912         0.312289         0.435824
 C        -0.146738         0.229162         0.062736
 O         2.004356         1.448300        -0.265941
 C         3.321683         1.217679         0.180473
 C         3.355327        -0.270345         0.407690
 O         2.078768        -0.684637        -0.098061
 H         4.104462         1.489749         3.393984
 H         4.588927        -0.062423         3.192986
 H         5.240534         0.970377         1.977092
 H         1.390641        -0.303934         2.565528
 H         1.179166         1.462771         2.342125
 H        -0.444445        -0.214291        -0.862299
 H        -0.509271        -0.359091         0.821273
 H        -0.672546         1.178841         0.262013
 H         3.968561         1.919104        -0.267459
 H         4.212961        -0.873487         0.329320
