19
Iteration:  4440
 C         4.314692         0.628260         2.658536
 C         3.260601         0.583207         1.545649
 C         1.819813         0.493120         1.938219
 C         1.305336         0.397714         0.566839
 C        -0.180052         0.250576         0.041161
 O         1.788701         1.471210        -0.231617
 C         3.175534         1.364350         0.158078
 C         3.409135        -0.128815         0.220378
 O         2.200221        -0.727659         0.004169
 H         4.356680         1.736013         2.841306
 H         4.019649         0.215284         3.657666
 H         5.321480         0.323555         2.328400
 H         1.708092        -0.489676         2.339625
 H         1.490707         1.330257         2.559645
 H        -0.041848        -0.181171        -0.993233
 H        -0.716592        -0.471255         0.623411
 H        -0.450293         1.291616        -0.150393
 H         3.954239         2.005717        -0.223145
 H         4.190032        -0.745658        -0.321309
