19
Iteration:   642
 C         4.490577        -0.045942         2.309349
 C         3.200066         0.327526         1.528324
 C         1.842698        -0.310434         1.659564
 C         1.336125         0.307838         0.423016
 C        -0.021180        -0.051912        -0.009936
 O         1.570737         1.788138         0.682582
 C         2.942414         1.641015         0.857521
 C         3.462959         0.546811         0.084750
 O         2.267869         0.094699        -0.663378
 H         4.549241        -0.029768         3.410850
 H         4.944983        -1.030269         2.023534
 H         5.178294         0.792037         1.917490
 H         2.034554        -1.430678         1.602906
 H         1.215628        -0.128966         2.512035
 H        -0.216107        -1.158517        -0.053479
 H        -0.612726         0.394994         0.825622
 H        -0.490170         0.482532        -0.830300
 H         3.446333         2.577857         1.118001
 H         4.397398         0.444813        -0.487800
