19
Iteration:  1342
 C         4.384810         0.367650         2.615846
 C         3.322110         0.336580         1.547375
 C         1.876968        -0.023846         1.780308
 C         1.269729         0.373274         0.446838
 C        -0.183986         0.067993         0.066676
 O         1.751824         1.688246         0.254323
 C         3.151234         1.567095         0.600421
 C         3.461430         0.115743         0.045653
 O         2.102905        -0.267824        -0.504686
 H         4.044126         0.837648         3.466087
 H         4.791904        -0.583000         2.987091
 H         5.154047         1.072953         2.146195
 H         1.805247        -1.032410         2.135356
 H         1.386874         0.607757         2.527096
 H        -0.244415        -0.257412        -0.995594
 H        -0.652663        -0.637383         0.681399
 H        -0.644554         1.089613         0.318010
 H         3.794514         2.425979         0.502772
 H         4.415202         0.088032        -0.435943
