19
Iteration:   152
 C         4.644807        -0.193213         2.194559
 C         3.356286         0.202115         1.440813
 C         2.029830        -0.562711         1.373661
 C         1.257136         0.336757         0.419480
 C        -0.262487        -0.091294        -0.037911
 O         1.405645         1.590167         0.974347
 C         2.850454         1.724740         1.191535
 C         3.430265         0.860158         0.100707
 O         2.409640         0.411935        -0.803425
 H         4.412282        -0.146853         3.354202
 H         5.159626        -1.132275         2.036742
 H         5.382605         0.711796         2.028305
 H         2.175438        -1.545412         0.902671
 H         1.502598        -0.700059         2.362788
 H        -0.945950         0.330201         0.758690
 H        -0.517648         0.408629        -1.031207
 H        -0.367660        -1.224269        -0.040739
 H         2.999070         2.712625         1.656920
 H         4.390096         1.255104        -0.375087
