19
Iteration:  3360charge 0 multiplicity 1
 C         4.316723         0.750837         2.616234
 C         3.210217         0.561666         1.567346
 C         1.705275         0.652182         1.869674
 C         1.286583         0.422425         0.439885
 C        -0.222476         0.233216         0.090616
 O         1.968307         1.438091        -0.321127
 C         3.265416         1.292905         0.226994
 C         3.430803        -0.235499         0.323315
 O         2.132822        -0.765953         0.029631
 H         4.542873         1.741490         3.121717
 H         4.140410        -0.119160         3.338175
 H         5.343919         0.484416         2.259156
 H         1.389940        -0.105754         2.612323
 H         1.402283         1.610079         2.365950
 H        -0.412185         0.253971        -0.964662
 H        -0.417749        -0.856327         0.284673
 H        -0.906587         0.908532         0.528631
 H         4.044140         2.054059         0.136175
 H         4.264789        -0.887401        -0.065519
