19
Iteration:  2188
 C         4.314998         0.776108         2.591684
 C         3.199347         0.532586         1.590546
 C         1.727655         0.497706         1.948181
 C         1.262010         0.396975         0.488146
 C        -0.096808         0.216007         0.057614
 O         2.000415         1.639139        -0.153912
 C         3.260054         1.173142         0.074887
 C         3.379175        -0.306034         0.307220
 O         2.052245        -0.646045        -0.092027
 H         3.929956         1.548712         3.217035
 H         4.587403        -0.045630         3.367570
 H         5.239193         1.189282         2.235954
 H         1.617566        -0.520163         2.447253
 H         1.351363         1.401500         2.533141
 H        -0.634022         1.094349        -0.419234
 H        -0.002092        -0.872608        -0.444693
 H        -0.701205        -0.061048         0.972034
 H         3.958850         1.903667        -0.020851
 H         4.172010        -0.986704        -0.091647
