19
Iteration:   767
 C         4.460127         0.081384         2.368844
 C         3.200014         0.385760         1.595122
 C         1.966493        -0.405061         1.682873
 C         1.314965         0.274240         0.357811
 C        -0.116403         0.108672         0.074087
 O         1.559665         1.725852         0.537958
 C         2.943612         1.633285         0.870285
 C         3.467352         0.453348         0.018334
 O         2.302588         0.031772        -0.616628
 H         4.519346         0.227889         3.534269
 H         4.590596        -0.982044         2.180285
 H         5.313300         0.591104         1.993379
 H         2.098835        -1.476597         1.698011
 H         1.408463        -0.011278         2.588160
 H        -0.779758         0.938860         0.307735
 H        -0.177737         0.035239        -1.020690
 H        -0.521797        -0.764792         0.573207
 H         3.436024         2.617597         0.843191
 H         4.393321         0.334697        -0.472668
