19
Iteration:  1882
 C         4.345134         0.577989         2.606454
 C         3.226527         0.506882         1.580258
 C         1.796179         0.365695         1.933111
 C         1.318147         0.426947         0.324253
 C        -0.121603         0.084055         0.079730
 O         1.868735         1.752810         0.029394
 C         3.278803         1.353601         0.368304
 C         3.300270        -0.148584         0.157204
 O         2.101889        -0.627974        -0.230219
 H         4.051394         1.332904         3.327401
 H         4.611415        -0.460248         2.874349
 H         5.171429         1.071420         2.106677
 H         1.691351        -0.636477         2.308065
 H         1.278552         1.116189         2.519533
 H        -0.256243         0.486025        -0.922869
 H        -0.216778        -0.951129         0.246610
 H        -0.764350         0.610558         0.837114
 H         3.941490         2.140198         0.081770
 H         4.156776        -0.720481        -0.191390
