19
Iteration:   350charge 0 multiplicity 1
 C         4.601134        -0.090145         2.307427
 C         3.325826         0.223765         1.492367
 C         1.949246        -0.566311         1.424351
 C         1.263477         0.293217         0.408182
 C        -0.207735        -0.019911         0.071790
 O         1.486582         1.630302         0.765961
 C         2.888703         1.701594         1.101705
 C         3.421298         0.736443         0.101096
 O         2.350364         0.363859        -0.766100
 H         4.549395         0.145899         3.440544
 H         4.910892        -1.087828         2.087597
 H         5.491327         0.436958         1.936793
 H         2.224964        -1.637260         1.199661
 H         1.389669        -0.320099         2.287710
 H        -0.894428         0.793634         0.382532
 H        -0.346846        -0.112596        -1.018922
 H        -0.403661        -1.025321         0.463602
 H         3.280559         2.678848         1.365732
 H         4.411453         0.898278        -0.446745
