19
Iteration:  3584charge 0 multiplicity 1
 C         4.347374         0.897424         2.621384
 C         3.292524         0.671279         1.522703
 C         1.775743         0.468012         1.930427
 C         1.285042         0.307521         0.422559
 C        -0.181722         0.328179        -0.036371
 O         1.908861         1.458829        -0.087350
 C         3.244322         1.237952         0.181321
 C         3.373529        -0.294677         0.357682
 O         2.074908        -0.796988        -0.098444
 H         4.201596         1.967122         2.874986
 H         4.078976         0.406856         3.559351
 H         5.402312         0.716739         2.356253
 H         1.592921        -0.414883         2.592854
 H         1.463546         1.371787         2.474234
 H        -0.231497         0.332275        -1.112332
 H        -0.782116        -0.405002         0.443015
 H        -0.533470         1.259273         0.287830
 H         4.156152         1.736757        -0.170449
 H         4.187170        -0.984244         0.234056
