19
Iteration:  1259charge 0 multiplicity 1
 C         4.510587         0.305387         2.470996
 C         3.233600         0.290247         1.593887
 C         1.736765        -0.025740         1.791353
 C         1.348773         0.397822         0.365079
 C        -0.160264         0.037001         0.057477
 O         1.748924         1.760943         0.407325
 C         3.084387         1.587998         0.582088
 C         3.408215         0.183017         0.089642
 O         2.226415        -0.251570        -0.477814
 H         4.393916         1.046185         3.359157
 H         4.581460        -0.765989         2.809546
 H         5.482845         0.609647         2.073382
 H         1.587120        -1.095368         2.090262
 H         1.093654         0.639607         2.397115
 H        -0.598559        -0.666542         0.786376
 H        -0.890847         0.864108        -0.172314
 H        -0.218441        -0.553654        -0.920224
 H         3.629690         2.468516         0.281647
 H         4.307638        -0.004012        -0.409335
