19
Iteration:  2340
 C         4.390099         0.830176         2.640039
 C         3.259897         0.659393         1.600948
 C         1.708715         0.440970         1.906440
 C         1.288524         0.324128         0.403244
 C        -0.137827         0.348169         0.056854
 O         1.897212         1.463510        -0.304303
 C         3.269243         1.272669         0.197995
 C         3.380011        -0.246765         0.381031
 O         2.092432        -0.788584        -0.020300
 H         4.379891         1.788395         3.104558
 H         4.207057        -0.059466         3.347001
 H         5.308495         0.674319         2.088954
 H         1.503112        -0.476386         2.546880
 H         1.209022         1.176318         2.595152
 H        -0.790768         0.313437         0.932642
 H        -0.252709         1.478700        -0.102126
 H        -0.644439        -0.333403        -0.605708
 H         4.111194         1.844085        -0.312778
 H         4.151104        -0.782535        -0.077880
