19
Iteration:  4801
 C         4.378167         0.688123         2.617711
 C         3.222566         0.597231         1.599067
 C         1.730546         0.578847         1.901983
 C         1.270460         0.361054         0.401915
 C        -0.175712         0.033760         0.120862
 O         2.008582         1.596373        -0.261123
 C         3.243191         1.236738         0.262751
 C         3.331860        -0.176063         0.335475
 O         2.095251        -0.620110        -0.095567
 H         4.224632         1.531346         3.284045
 H         4.584677        -0.225689         3.181636
 H         5.273916         0.875603         2.016895
 H         1.211811        -0.286178         2.337851
 H         1.348817         1.605167         2.070958
 H        -0.507828        -0.220985        -0.941466
 H        -0.364219        -0.752897         0.895575
 H        -0.730892         0.874316         0.594750
 H         3.978528         1.926915        -0.078386
 H         4.227714        -0.804703         0.030076
