19
Iteration:  1231
 C         4.380444         0.384738         2.545900
 C         3.273261         0.324000         1.493486
 C         1.935402        -0.155290         1.840173
 C         1.327795         0.359432         0.518193
 C        -0.126634         0.159046         0.025102
 O         1.721584         1.760198         0.375651
 C         3.055224         1.586739         0.597535
 C         3.433984         0.165554        -0.002013
 O         2.129105        -0.304066        -0.524957
 H         4.225089         1.053677         3.372607
 H         4.380085        -0.607266         2.971522
 H         5.402349         0.589157         2.186201
 H         1.969023        -1.245395         1.894094
 H         1.451981         0.294882         2.723365
 H        -0.979242         0.205307         0.720188
 H        -0.310003         0.760209        -0.872458
 H        -0.094183        -0.800634        -0.431852
 H         3.548980         2.570986         0.836612
 H         4.353926        -0.011093        -0.662151
