19
Iteration:  1551
 C         4.359587         0.523397         2.559299
 C         3.264533         0.400395         1.527083
 C         1.796664         0.123519         1.871150
 C         1.224888         0.430222         0.472678
 C        -0.160338         0.143733         0.056803
 O         1.780113         1.694917         0.216474
 C         3.190078         1.455103         0.564827
 C         3.461632        -0.055475         0.096090
 O         2.210351        -0.438130        -0.466265
 H         4.223911         1.301489         3.257440
 H         4.483398        -0.372227         3.216290
 H         5.303696         0.762078         1.933528
 H         1.655226        -0.922376         2.215001
 H         1.294910         0.869214         2.499882
 H        -0.116033        -0.788683        -0.513976
 H        -0.781049        -0.108006         0.987515
 H        -0.704896         0.862971        -0.623633
 H         3.837562         2.301298         0.428101
 H         4.229803        -0.275255        -0.610755
