19
Iteration:  1890
 C         4.336606         0.532591         2.605511
 C         3.209600         0.530720         1.629937
 C         1.805587         0.352800         1.904060
 C         1.293433         0.406183         0.411600
 C        -0.128034         0.132226         0.053821
 O         1.878110         1.708274        -0.012698
 C         3.213602         1.418541         0.296385
 C         3.342408        -0.139503         0.179391
 O         2.108890        -0.608611        -0.227904
 H         4.259540         1.284811         3.359678
 H         4.675097        -0.454827         3.109434
 H         5.334267         0.863275         2.086344
 H         1.707814        -0.647853         2.392586
 H         1.354806         1.077355         2.613033
 H        -0.537005         0.541672        -0.896614
 H        -0.111921        -0.923034         0.014978
 H        -0.764426         0.379140         0.855755
 H         4.037510         2.110022        -0.080631
 H         4.286574        -0.640079        -0.009967
