19
Iteration:  4116
 C         4.342857         0.732872         2.636660
 C         3.284785         0.641022         1.622587
 C         1.747294         0.508776         1.851319
 C         1.303437         0.315977         0.408708
 C        -0.261807         0.233763         0.074587
 O         1.938339         1.502821        -0.286609
 C         3.202183         1.310576         0.207681
 C         3.435267        -0.182834         0.271768
 O         2.127371        -0.757504         0.049756
 H         4.415203         1.755144         3.123919
 H         4.131663         0.108284         3.534155
 H         5.287655         0.491697         2.084086
 H         1.543667        -0.378496         2.453317
 H         1.407060         1.413534         2.409810
 H        -0.380409         0.492175        -0.960904
 H        -0.690928        -0.806905         0.266999
 H        -0.741589         0.971381         0.751008
 H         3.870070         2.030409        -0.183869
 H         4.379091        -0.753815        -0.005308
