19
Iteration:  1025charge 0 multiplicity 1
 C         4.399262         0.235843         2.623560
 C         3.358817         0.297936         1.448835
 C         1.923344        -0.214749         1.701803
 C         1.302525         0.327316         0.448453
 C        -0.215621         0.067229         0.031823
 O         1.689779         1.758671         0.596562
 C         3.063653         1.624813         0.602689
 C         3.411605         0.317112        -0.000367
 O         2.202744        -0.175777        -0.604445
 H         4.087982         0.816330         3.390463
 H         4.783811        -0.799794         2.794887
 H         5.346217         0.811687         2.392493
 H         1.991369        -1.274299         1.701321
 H         1.307493         0.212994         2.469743
 H        -0.912229         0.088304         0.861262
 H        -0.437168         0.883496        -0.672541
 H        -0.206927        -0.856133        -0.511805
 H         3.568268         2.571604         0.731079
 H         4.182819         0.353971        -0.738221
