19
Iteration:  4267
 C         4.222667         0.799959         2.575034
 C         3.247169         0.577998         1.500453
 C         1.858302         0.573229         1.922198
 C         1.304880         0.417876         0.480909
 C        -0.122535         0.044145         0.058839
 O         1.954587         1.611952        -0.115172
 C         3.327752         1.266574         0.240644
 C         3.329195        -0.339870         0.255428
 O         2.007723        -0.682156        -0.098295
 H         4.193754         1.869803         2.696363
 H         3.969361         0.206959         3.440608
 H         5.247571         0.515218         2.338447
 H         1.641170        -0.228631         2.685650
 H         1.408033         1.542311         2.375281
 H        -0.031177        -0.138928        -1.012180
 H        -0.458941        -0.774232         0.736484
 H        -0.748360         0.948250         0.172784
 H         4.145023         2.034795         0.171322
 H         4.144916        -0.956022        -0.028449
