19
Iteration:  3004
 C         4.304365         0.766523         2.571613
 C         3.164742         0.620925         1.561162
 C         1.751260         0.600552         1.882431
 C         1.241352         0.404000         0.421260
 C        -0.132493         0.086272         0.070140
 O         2.018825         1.621194        -0.131281
 C         3.359232         1.203115         0.212082
 C         3.359839        -0.269184         0.236800
 O         2.062443        -0.725699        -0.006995
 H         4.243307         1.795859         3.067996
 H         3.979027         0.022365         3.342192
 H         5.328288         0.544330         2.195302
 H         1.531709        -0.254446         2.520675
 H         1.305159         1.519333         2.244087
 H        -0.769034        -0.005743         0.953108
 H        -0.572076         0.992534        -0.442395
 H        -0.149733        -0.781240        -0.554987
 H         4.097989         1.951191        -0.149373
 H         4.048040        -1.081611         0.135840
