19
Iteration:  2368
 C         4.269782         0.706894         2.611010
 C         3.282913         0.605389         1.558747
 C         1.734302         0.645322         1.868066
 C         1.250237         0.440362         0.492240
 C        -0.195852         0.198448         0.080492
 O         1.960743         1.506829        -0.262478
 C         3.313436         1.244919         0.142962
 C         3.415516        -0.250616         0.341726
 O         2.085143        -0.789097         0.023354
 H         4.017900         1.484440         3.394617
 H         4.366900        -0.269076         3.030179
 H         5.206238         0.961169         2.058616
 H         1.427182        -0.029354         2.653004
 H         1.576018         1.645146         2.269832
 H        -0.759511        -0.428022         0.800376
 H        -0.694445         1.165499         0.101040
 H        -0.249773        -0.178773        -0.979627
 H         4.103638         1.919534        -0.098841
 H         4.347579        -0.873501         0.018723
