19
Iteration:  2829charge 0 multiplicity 1
 C         4.315248         0.827634         2.623606
 C         3.191464         0.638818         1.595734
 C         1.760747         0.600815         1.827224
 C         1.274558         0.339272         0.422593
 C        -0.168764         0.259302         0.109669
 O         1.984425         1.490312        -0.260740
 C         3.320353         1.247315         0.198561
 C         3.343194        -0.315681         0.380386
 O         2.075650        -0.810026        -0.031515
 H         4.489586         1.931265         2.883886
 H         4.177342         0.297764         3.606223
 H         5.271961         0.379055         2.266931
 H         1.492711        -0.226569         2.481574
 H         1.539942         1.601122         2.183214
 H        -0.458064        -0.712230        -0.309376
 H        -0.823291         0.504092         0.912598
 H        -0.497111         1.050685        -0.597017
 H         3.993792         1.914821        -0.301587
 H         4.329209        -0.829102         0.219726
