19
Iteration:  1043
 C         4.406273         0.347094         2.520500
 C         3.282978         0.246425         1.504453
 C         1.929501        -0.237694         1.732512
 C         1.260668         0.385653         0.405039
 C        -0.126866         0.099789         0.052896
 O         1.626039         1.755651         0.512998
 C         3.093956         1.521548         0.798207
 C         3.474428         0.301250        -0.081372
 O         2.207207        -0.127901        -0.618241
 H         4.004803         0.955069         3.487007
 H         4.520195        -0.696869         2.927698
 H         5.373360         0.818530         2.184550
 H         1.587858        -1.327559         1.779417
 H         1.605867         0.268805         2.666758
 H        -0.507495        -0.482938         0.897668
 H        -0.782261         0.958181        -0.131685
 H        -0.193067        -0.647870        -0.787716
 H         3.838141         2.360904         0.787061
 H         4.283426        -0.212162        -0.745591
