19
Iteration:  4792charge 0 multiplicity 1
 C         4.368137         0.649261         2.616877
 C         3.248013         0.638980         1.644131
 C         1.693565         0.588147         1.884109
 C         1.309062         0.380207         0.380681
 C        -0.194569         0.065933         0.156937
 O         1.920392         1.539501        -0.248774
 C         3.282275         1.355396         0.199373
 C         3.394112        -0.234655         0.346678
 O         2.119833        -0.651152        -0.098181
 H         4.200304         1.408040         3.424781
 H         4.535315        -0.345342         3.106389
 H         5.324674         0.993688         2.126498
 H         1.309021        -0.173128         2.585683
 H         1.258114         1.519467         2.261861
 H        -0.503419         0.031074        -0.915125
 H        -0.605611        -0.924078         0.605700
 H        -0.769560         0.969588         0.455342
 H         4.086792         1.890788        -0.350723
 H         4.235341        -0.924281         0.067824
