19
Iteration:  4195
 C         4.327244         0.740453         2.501772
 C         3.123032         0.613472         1.649996
 C         1.636055         0.477833         1.862938
 C         1.341451         0.363244         0.375409
 C        -0.127668         0.312457         0.178148
 O         1.904437         1.469726        -0.276098
 C         3.249086         1.250362         0.204287
 C         3.387172        -0.170626         0.398799
 O         2.234535        -0.776115        -0.025681
 H         4.183340         1.530943         3.272031
 H         4.700584        -0.241585         2.832925
 H         5.165588         1.196882         1.908825
 H         1.343489        -0.396543         2.386928
 H         1.255479         1.293874         2.422634
 H        -0.331134         0.162298        -0.935590
 H        -0.550744        -0.375369         0.834191
 H        -0.511132         1.313002         0.486532
 H         4.010102         2.081600         0.048670
 H         4.194862        -0.743167         0.078425
