19
Iteration:  1579charge 0 multiplicity 1
 C         4.396358         0.420166         2.548158
 C         3.214077         0.453801         1.597816
 C         1.755776         0.102393         1.873070
 C         1.262670         0.322732         0.429381
 C        -0.099204         0.051169         0.092255
 O         1.809645         1.803954         0.136283
 C         3.206742         1.524512         0.470120
 C         3.428647         0.062221         0.173799
 O         2.149194        -0.449705        -0.409393
 H         4.506423         1.338778         3.236420
 H         4.313431        -0.500514         3.116569
 H         5.271904         0.345869         1.966379
 H         1.483356        -0.886190         2.261415
 H         1.196633         0.905964         2.374643
 H        -0.239777        -0.374351        -0.901833
 H        -0.486575        -0.632642         0.775281
 H        -0.730387         0.924132         0.077931
 H         3.991387         2.192995         0.243183
 H         4.288216        -0.230799        -0.427379
