19
Iteration:  4588
 C         4.356678         0.782204         2.540513
 C         3.233119         0.566829         1.583294
 C         1.701594         0.512950         1.868891
 C         1.254693         0.341668         0.423183
 C        -0.218246         0.072215         0.152796
 O         1.987229         1.697033        -0.185128
 C         3.354737         1.287562         0.298204
 C         3.345338        -0.314554         0.345922
 O         2.079129        -0.670962        -0.184541
 H         4.065520         1.358960         3.394806
 H         4.823858        -0.133489         2.828068
 H         5.103729         1.401045         2.048684
 H         1.333666        -0.426551         2.380841
 H         1.400271         1.487258         2.313913
 H        -0.380550        -0.040283        -0.858480
 H        -0.386724        -0.928109         0.696037
 H        -0.704474         0.901249         0.697758
 H         4.064137         1.982823        -0.050024
 H         4.202811        -1.026775         0.467647
