19
Iteration:  4402charge 0 multiplicity 1
 C         4.339748         0.789641         2.554360
 C         3.235938         0.618756         1.594944
 C         1.747590         0.459021         1.823725
 C         1.271124         0.243198         0.374753
 C        -0.132102         0.252068         0.159409
 O         1.892724         1.557852        -0.159561
 C         3.278319         1.293601         0.234723
 C         3.355681        -0.251568         0.395383
 O         2.125261        -0.722889        -0.109869
 H         4.072146         1.729622         3.056079
 H         4.617239        -0.007690         3.241696
 H         5.255288         1.147112         2.053618
 H         1.661576        -0.564004         2.292133
 H         1.175897         1.212802         2.407086
 H        -0.338966         0.096136        -0.906331
 H        -0.908318        -0.298728         0.647848
 H        -0.418720         1.252057         0.472224
 H         4.088461         1.915698        -0.073094
 H         4.270595        -0.730395         0.036581
