19
Iteration:  1521charge 0 multiplicity 1
 C         4.362922         0.449883         2.648915
 C         3.333410         0.485019         1.532892
 C         1.853763        -0.005652         1.844089
 C         1.289123         0.248057         0.472726
 C        -0.139299         0.279678        -0.011001
 O         1.676748         1.669961         0.173884
 C         3.107992         1.552307         0.415396
 C         3.444167         0.026401         0.055752
 O         2.183709        -0.446475        -0.311245
 H         4.096262         1.069904         3.553355
 H         4.786868        -0.466400         3.092730
 H         5.265008         0.919936         2.295793
 H         2.028566        -1.071785         1.987768
 H         1.282877         0.416426         2.666733
 H        -0.525019        -0.749622         0.121037
 H        -0.516155         1.035613         0.780252
 H        -0.198892         0.804291        -0.947780
 H         3.691111         2.496815         0.251120
 H         4.208803        -0.472397        -0.542182
