19
Iteration:    95
 C         4.597641        -0.072865         2.260784
 C         3.435235         0.222950         1.377379
 C         2.155927        -0.670721         1.307840
 C         1.247753         0.358914         0.430965
 C        -0.137542         0.019970        -0.206355
 O         1.358579         1.566511         1.187309
 C         2.825435         1.594935         1.156608
 C         3.451222         0.843050        -0.049955
 O         2.215073         0.444077        -0.634812
 H         4.162324        -0.369098         3.281615
 H         5.079728        -0.985263         1.791982
 H         5.458060         0.692811         2.412615
 H         2.260794        -1.626374         0.797546
 H         1.781021        -0.900769         2.395760
 H        -0.234054         0.676759        -1.127906
 H        -0.216004        -1.056588        -0.456737
 H        -0.997979         0.296611         0.466530
 H         3.228756         2.519354         1.523448
 H         4.293404         1.052830        -0.655558
