19
Iteration:  2417charge 0 multiplicity 1
 C         4.314945         0.717302         2.585786
 C         3.265994         0.644033         1.623705
 C         1.748014         0.650362         1.966780
 C         1.269624         0.372152         0.387485
 C        -0.292031         0.232147         0.036024
 O         1.961334         1.449575        -0.349320
 C         3.332505         1.236604         0.179563
 C         3.420267        -0.269960         0.325998
 O         2.134372        -0.689851         0.093329
 H         3.859259         1.448173         3.240261
 H         4.334943        -0.296772         3.143617
 H         5.264324         1.056096         2.181045
 H         1.557225        -0.231220         2.642206
 H         1.456227         1.600943         2.489233
 H        -0.555283        -0.843395         0.081315
 H        -0.901766         0.718491         0.813954
 H        -0.523686         0.708938        -0.918644
 H         4.124958         1.765992        -0.315237
 H         4.065990        -1.100495         0.037569
