19
Iteration:   160
 C         4.605133        -0.184903         2.231228
 C         3.353088         0.254445         1.463507
 C         2.047210        -0.617712         1.407703
 C         1.264868         0.337966         0.416938
 C        -0.165774        -0.065248        -0.050528
 O         1.421553         1.605924         1.031932
 C         2.850414         1.709310         1.169836
 C         3.391667         0.924438         0.027985
 O         2.349249         0.368063        -0.803906
 H         4.365672        -0.205314         3.331456
 H         4.902490        -1.249438         2.011023
 H         5.481014         0.532390         2.095658
 H         2.251415        -1.516836         0.842896
 H         1.482738        -0.680299         2.429431
 H        -0.967806         0.023115         0.730058
 H        -0.498159         0.506924        -0.920474
 H        -0.082458        -1.090062        -0.445866
 H         3.198413         2.674376         1.440026
 H         4.282819         1.146848        -0.574596
