19
Iteration:  4350
 C         4.345934         0.789389         2.680193
 C         3.303494         0.607404         1.555249
 C         1.804399         0.492311         1.910643
 C         1.269413         0.283829         0.481137
 C        -0.147588         0.186456         0.049924
 O         1.930056         1.625094        -0.156579
 C         3.224926         1.289081         0.086500
 C         3.363314        -0.245489         0.290621
 O         2.038958        -0.723423        -0.022351
 H         3.862656         1.395067         3.518075
 H         4.624228        -0.178818         3.199788
 H         5.233847         1.356137         2.278995
 H         1.425122        -0.272794         2.578317
 H         1.590143         1.485816         2.120431
 H        -0.128543         0.456244        -0.963464
 H        -0.418789        -0.922894        -0.076136
 H        -0.959238         0.681435         0.555744
 H         4.091620         1.708608        -0.456736
 H         4.126046        -0.994385         0.025673
