19
Iteration:  3639charge 0 multiplicity 1
 C         4.295670         0.726161         2.593562
 C         3.197361         0.631004         1.578358
 C         1.751443         0.591845         1.864189
 C         1.320088         0.388188         0.413248
 C        -0.195456         0.173238         0.091607
 O         1.945912         1.518636        -0.213552
 C         3.273555         1.340555         0.201675
 C         3.390626        -0.291077         0.406206
 O         2.115331        -0.740264        -0.060375
 H         4.254514         1.507103         3.382721
 H         4.543372        -0.262629         3.009511
 H         5.234201         0.979010         2.050413
 H         1.366687        -0.253236         2.452611
 H         1.452240         1.604667         2.208337
 H        -0.209123        -0.292292        -0.858184
 H        -0.719968        -0.512160         0.777520
 H        -0.706197         1.080593         0.034480
 H         4.169597         1.923549        -0.067578
 H         4.154092        -0.973042         0.171801
