19
Iteration:  4509
 C         4.323610         0.759400         2.558025
 C         3.221374         0.567444         1.578549
 C         1.743005         0.517377         1.904441
 C         1.321691         0.412953         0.433170
 C        -0.135143         0.248788         0.158513
 O         1.899883         1.530447        -0.209589
 C         3.236702         1.331777         0.265233
 C         3.355639        -0.250143         0.267980
 O         2.157399        -0.806150        -0.091423
 H         4.095700         1.670967         3.101045
 H         4.356780        -0.011456         3.334335
 H         5.323835         0.779711         2.104629
 H         1.431382        -0.466940         2.354680
 H         1.137194         1.275554         2.477884
 H        -0.237243         0.411150        -0.979123
 H        -0.203536        -0.813230         0.374795
 H        -0.836341         0.979015         0.664342
 H         3.891476         2.206995         0.021172
 H         4.242759        -0.701708        -0.065553
