19
Iteration:  3804charge 0 multiplicity 1
 C         4.299277         0.672024         2.722941
 C         3.285742         0.631677         1.543978
 C         1.771570         0.592545         1.953468
 C         1.304035         0.458177         0.518049
 C        -0.165311         0.134823         0.016179
 O         1.842019         1.467227        -0.276363
 C         3.230551         1.310355         0.128833
 C         3.445076        -0.210433         0.245667
 O         2.127734        -0.725347         0.021075
 H         3.973603         1.386326         3.480626
 H         4.372421        -0.366417         3.093241
 H         5.260506         0.996643         2.279516
 H         1.561995        -0.252457         2.599566
 H         1.412875         1.573738         2.365841
 H        -0.121414        -0.141129        -0.958895
 H        -0.725665        -0.552157         0.600255
 H        -0.658482         1.065812        -0.007435
 H         3.963426         2.050484        -0.191258
 H         4.312108        -0.728642        -0.160607
