19
Iteration:   625charge 0 multiplicity 1
 C         4.494219         0.006973         2.315960
 C         3.341590         0.333448         1.530325
 C         1.910567        -0.351360         1.660177
 C         1.279139         0.378990         0.366978
 C        -0.138935        -0.044910        -0.081863
 O         1.572086         1.766614         0.789087
 C         3.026295         1.701865         0.921571
 C         3.371311         0.531509        -0.031875
 O         2.252892         0.045793        -0.630157
 H         4.162901        -0.069790         3.430673
 H         4.779496        -1.022746         2.153222
 H         5.307704         0.669306         2.269906
 H         1.891337        -1.427352         1.570015
 H         1.521835         0.021681         2.654947
 H        -0.242326        -1.075497         0.234975
 H        -1.084211         0.342944         0.309301
 H         0.009823        -0.101156        -1.179018
 H         3.598297         2.627936         1.052950
 H         4.355140         0.379205        -0.634640
