19
Iteration:  2978charge 0 multiplicity 1
 C         4.351938         0.782289         2.701881
 C         3.265262         0.591660         1.626271
 C         1.850276         0.524638         1.928785
 C         1.225664         0.375550         0.382481
 C        -0.140774         0.342318         0.009623
 O         1.856528         1.450492        -0.265665
 C         3.210026         1.223281         0.208627
 C         3.397578        -0.236941         0.315934
 O         2.117904        -0.759150        -0.017535
 H         4.045283         1.679148         3.270059
 H         4.384373        -0.055223         3.359851
 H         5.321473         0.975071         2.210838
 H         1.689162        -0.335853         2.645125
 H         1.476520         1.519606         2.317328
 H        -0.854597         0.139941         0.850610
 H        -0.445107         1.301727        -0.383521
 H        -0.193253        -0.484621        -0.802423
 H         3.828294         1.878762        -0.355042
 H         4.155678        -0.946546        -0.099036
