19
Iteration:  2655
 C         4.378871         0.864492         2.693985
 C         3.235050         0.591019         1.620556
 C         1.737236         0.491705         1.904925
 C         1.312745         0.298805         0.373960
 C        -0.155736         0.404048         0.063634
 O         1.905860         1.453804        -0.299453
 C         3.178021         1.232918         0.155450
 C         3.385441        -0.290054         0.383111
 O         2.131312        -0.734526        -0.018189
 H         4.770081         1.879644         2.934038
 H         4.316582         0.349133         3.675784
 H         5.313158         0.430767         2.273940
 H         1.493556        -0.487454         2.392180
 H         1.174224         1.292643         2.409269
 H        -0.753458         0.027117         0.955475
 H        -0.586047         1.303431        -0.279542
 H        -0.546044        -0.368502        -0.718369
 H         4.040513         1.745942        -0.380862
 H         4.242034        -0.826591         0.036225
