19
Iteration:  4813charge 0 multiplicity 1
 C         4.347253         0.771246         2.548593
 C         3.169054         0.499445         1.647383
 C         1.711414         0.559178         1.844226
 C         1.278466         0.421769         0.381871
 C        -0.130200         0.063526         0.159991
 O         2.032114         1.666248        -0.222441
 C         3.279854         1.299317         0.284279
 C         3.338379        -0.242662         0.279127
 O         2.032752        -0.714346        -0.104419
 H         4.301424         1.729450         3.094911
 H         4.383484        -0.018085         3.321243
 H         5.310176         0.748249         2.000688
 H         1.506505        -0.194338         2.602086
 H         1.445069         1.443513         2.412798
 H        -0.176809        -0.501745        -0.789483
 H        -0.207480        -0.820970         0.875464
 H        -0.982668         0.769694         0.272896
 H         4.156832         1.974482         0.322748
 H         4.210884        -0.841815        -0.071291
