19
Iteration:  3395
 C         4.284461         0.874039         2.687956
 C         3.334802         0.701946         1.553549
 C         1.829972         0.491162         1.963016
 C         1.289476         0.366966         0.533393
 C        -0.012997         0.341695        -0.047866
 O         1.872131         1.470223        -0.146710
 C         3.181341         1.219186         0.053508
 C         3.342493        -0.261914         0.323854
 O         2.014941        -0.860823        -0.075965
 H         4.349423         1.944810         3.157255
 H         3.922489         0.308548         3.582167
 H         5.243513         0.402656         2.390745
 H         1.922949        -0.500246         2.491311
 H         1.228962         1.288658         2.502449
 H         0.102079         0.035935        -1.061815
 H        -0.570362        -0.242874         0.605147
 H        -0.484966         1.341756         0.019819
 H         3.983089         1.894306        -0.389837
 H         4.029948        -1.053298         0.021222
