19
Iteration:  3702charge 0 multiplicity 1
 C         4.215519         0.773258         2.694189
 C         3.331413         0.671660         1.494888
 C         1.795190         0.594024         1.962098
 C         1.321040         0.339292         0.470045
 C        -0.078764         0.210300        -0.012001
 O         1.877927         1.535012        -0.147107
 C         3.285173         1.253976         0.078387
 C         3.359708        -0.263421         0.257299
 O         2.058591        -0.795005         0.041174
 H         4.116417         1.745583         3.232069
 H         4.110560        -0.067092         3.382972
 H         5.211914         0.728952         2.232909
 H         1.495125        -0.349830         2.481341
 H         1.508485         1.440642         2.585829
 H        -0.015664         0.465249        -1.092458
 H        -0.499755        -0.756472         0.154770
 H        -0.735793         0.921518         0.455204
 H         3.920597         2.011733        -0.424869
 H         4.071869        -0.958240        -0.082601
