19
Iteration:  4754charge 0 multiplicity 1
 C         4.281483         0.684148         2.675060
 C         3.245911         0.650437         1.499874
 C         1.777245         0.472589         1.954781
 C         1.309963         0.264320         0.454714
 C        -0.152578         0.293778         0.030112
 O         1.808115         1.474348        -0.244684
 C         3.257383         1.360603         0.126981
 C         3.449457        -0.113229         0.204245
 O         2.151348        -0.763374         0.149143
 H         3.899853         1.214119         3.524883
 H         4.399478        -0.337913         2.978580
 H         5.252809         1.037332         2.418518
 H         1.838770        -0.497994         2.500400
 H         1.479894         1.415093         2.483268
 H         0.003712         0.749262        -0.946210
 H        -0.652382        -0.628970        -0.028336
 H        -0.672772         0.960367         0.711263
 H         3.868891         2.010817        -0.548452
 H         4.121199        -0.679092        -0.343972
