19
Iteration:  1128charge 0 multiplicity 1
 C         4.400323         0.124159         2.447752
 C         3.298550         0.431175         1.542161
 C         1.891758        -0.036061         1.777388
 C         1.318495         0.366875         0.488942
 C        -0.126149         0.004257        -0.018059
 O         1.672654         1.773037         0.480827
 C         3.030227         1.626512         0.583940
 C         3.434344         0.286759         0.046414
 O         2.202989        -0.252462        -0.487041
 H         4.073123         0.435751         3.474531
 H         4.722282        -0.895420         2.579246
 H         5.280237         0.648153         2.178432
 H         1.799389        -1.139701         2.031061
 H         1.565877         0.650672         2.596868
 H        -0.018972        -0.254167        -1.095061
 H        -0.474814        -0.939618         0.448887
 H        -0.895956         0.832573         0.148139
 H         3.597365         2.568654         0.582085
 H         4.283827         0.124795        -0.691921
