19
Iteration:  4552charge 0 multiplicity 1
 C         4.359961         0.797557         2.690781
 C         3.297871         0.656915         1.540276
 C         1.857203         0.445722         1.927857
 C         1.252330         0.410442         0.518000
 C        -0.120380         0.335343         0.011752
 O         1.813270         1.456948        -0.196078
 C         3.182684         1.321320         0.228106
 C         3.378997        -0.253541         0.216762
 O         2.109217        -0.856396        -0.082050
 H         3.895508         1.277493         3.564283
 H         4.857090        -0.091424         3.114378
 H         5.181489         1.413219         2.292222
 H         1.738291        -0.421485         2.568845
 H         1.531190         1.218222         2.638486
 H        -0.159520         0.834787        -1.005020
 H        -0.622496        -0.614736         0.036607
 H        -0.877782         0.993886         0.482567
 H         3.873271         1.998986        -0.349966
 H         4.235067        -0.817996         0.068344
