19
Iteration:  3618
 C         4.281226         0.790757         2.648077
 C         3.343686         0.573908         1.497017
 C         1.798536         0.487992         1.993886
 C         1.253168         0.437872         0.491621
 C        -0.087933         0.236775        -0.086284
 O         1.911178         1.502010        -0.219998
 C         3.239934         1.233765         0.174727
 C         3.348853        -0.206983         0.202526
 O         2.039532        -0.753847         0.119946
 H         3.954791         1.725552         3.106009
 H         4.324148        -0.036800         3.360029
 H         5.332651         1.073830         2.498292
 H         1.604046        -0.456694         2.515419
 H         1.621267         1.416028         2.584305
 H        -0.062568        -0.247179        -1.022544
 H        -0.691657        -0.470463         0.567187
 H        -0.589230         1.157848        -0.132429
 H         3.980638         2.011130        -0.208865
 H         4.101777        -0.822722        -0.157524
