19
Iteration:   127charge 0 multiplicity 1
 C         4.584164        -0.035568         2.137765
 C         3.255287         0.171019         1.474114
 C         2.033448        -0.703693         1.354656
 C         1.401678         0.310437         0.274676
 C        -0.060495         0.057656         0.054741
 O         1.388288         1.604936         0.909727
 C         2.767318         1.550910         1.286035
 C         3.438873         0.878421         0.101387
 O         2.323991         0.435488        -0.742001
 H         4.500684        -0.324598         3.238199
 H         5.112758        -0.928410         1.632979
 H         5.294407         0.862583         2.054124
 H         2.107350        -1.740126         0.999446
 H         1.359721        -0.731482         2.333542
 H        -0.667855         0.987443         0.235270
 H        -0.281127        -0.329165        -0.940026
 H        -0.331319        -0.677451         0.853822
 H         3.063108         2.444229         1.776193
 H         4.309555         1.062636        -0.485867
