19
Iteration:  4322
 C         4.291696         0.639863         2.560825
 C         3.229061         0.763781         1.547275
 C         1.793673         0.556109         1.914708
 C         1.316017         0.357976         0.415101
 C        -0.164828         0.288818         0.108913
 O         1.866904         1.360850        -0.258328
 C         3.194651         1.391294         0.228862
 C         3.417369        -0.141186         0.336250
 O         2.187502        -0.829949         0.037806
 H         4.143934         1.265370         3.411305
 H         4.092137        -0.321781         2.996936
 H         5.247481         0.641512         2.080425
 H         1.483105        -0.443943         2.299877
 H         1.464462         1.554038         2.402098
 H        -0.235685         0.792037        -0.908474
 H        -0.549946        -0.734188        -0.030837
 H        -0.747570         0.991942         0.738256
 H         3.920770         2.075420        -0.300400
 H         4.300754        -0.626639         0.064549
