19
Iteration:  3459charge 0 multiplicity 1
 C         4.307572         0.816863         2.538785
 C         3.180108         0.677031         1.664425
 C         1.706228         0.575270         1.909723
 C         1.309648         0.314164         0.431528
 C        -0.130198         0.228310         0.072683
 O         2.009068         1.451060        -0.257935
 C         3.315183         1.195520         0.200529
 C         3.346362        -0.262390         0.414980
 O         2.081182        -0.683502        -0.116663
 H         4.141481         1.535796         3.370824
 H         4.572992        -0.103494         3.150047
 H         5.219936         0.958817         1.938808
 H         1.382223        -0.287163         2.521154
 H         1.157016         1.440148         2.349751
 H        -0.468059        -0.230734        -0.822826
 H        -0.500480        -0.400702         0.889943
 H        -0.609945         1.204258         0.250478
 H         3.982415         1.937769        -0.233431
 H         4.182140        -0.901010         0.346192
