19
Iteration:  4923
 C         4.367827         0.800673         2.677926
 C         3.235721         0.568954         1.587460
 C         1.711344         0.605702         1.831983
 C         1.269865         0.536832         0.455505
 C        -0.158094         0.026117         0.122670
 O         1.979827         1.572977        -0.223409
 C         3.331134         1.201859         0.237313
 C         3.375787        -0.311916         0.295177
 O         2.011803        -0.677378        -0.117631
 H         4.168653         1.585029         3.389031
 H         4.664403        -0.067077         3.245163
 H         5.245043         1.101400         2.091191
 H         1.316190        -0.188475         2.501694
 H         1.640559         1.665575         2.135426
 H        -0.530138         0.009487        -0.861642
 H        -0.242627        -1.052811         0.595872
 H        -0.949489         0.468042         0.753202
 H         4.034549         1.912230        -0.167827
 H         4.102119        -0.923356        -0.160480
