19
Iteration:  1729
 C         4.447195         0.443050         2.667283
 C         3.269766         0.520264         1.572767
 C         1.796021         0.220730         1.904393
 C         1.278727         0.290377         0.505527
 C        -0.095570         0.222739         0.070611
 O         1.781430         1.620825         0.007960
 C         3.098855         1.520202         0.363531
 C         3.393038         0.054238         0.090713
 O         2.165697        -0.562732        -0.288376
 H         4.272502         1.358820         3.319895
 H         4.217102        -0.456995         3.304987
 H         5.476951         0.254376         2.308516
 H         1.676171        -0.832256         2.127304
 H         1.215962         0.784163         2.613186
 H        -0.917692         0.223211         0.892988
 H        -0.349648         1.120797        -0.470068
 H        -0.083822        -0.648898        -0.633111
 H         3.759647         2.321203        -0.020312
 H         4.239687        -0.327403        -0.488323
