19
Iteration:   611
 C         4.537396        -0.041514         2.453400
 C         3.399710         0.254538         1.420897
 C         2.022883        -0.285965         1.620030
 C         1.251149         0.380465         0.482778
 C        -0.097591        -0.036727        -0.133738
 O         1.505029         1.762883         0.755407
 C         2.949061         1.655444         0.914693
 C         3.409483         0.548938        -0.060950
 O         2.157089         0.051772        -0.594372
 H         4.064530         0.168264         3.498878
 H         4.970056        -1.004558         2.291687
 H         5.409332         0.671893         2.352994
 H         2.075879        -1.404244         1.445698
 H         1.562249        -0.028476         2.573987
 H        -0.503952        -0.893457         0.415007
 H        -0.698729         0.857574        -0.090934
 H         0.041331        -0.316571        -1.169840
 H         3.452314         2.608588         1.122797
 H         4.273014         0.619044        -0.800025
