19
Iteration:  1400charge 0 multiplicity 1
 C         4.499645         0.372915         2.611185
 C         3.310235         0.464753         1.544043
 C         1.834442        -0.106024         1.921883
 C         1.244981         0.294854         0.490676
 C        -0.215041         0.233341        -0.024119
 O         1.701576         1.693495         0.205552
 C         3.044546         1.531509         0.487953
 C         3.471865         0.196497         0.055279
 O         2.213087        -0.390108        -0.444686
 H         4.432976         1.152972         3.427502
 H         4.463793        -0.658516         3.064052
 H         5.601588         0.356301         2.383825
 H         1.750588        -1.180119         2.156184
 H         1.307267         0.544454         2.612985
 H        -0.454941         1.271436        -0.317704
 H        -0.247842        -0.587954        -0.815579
 H        -0.869582        -0.035699         0.860210
 H         3.590680         2.456954         0.424491
 H         4.416169        -0.035207        -0.448496
