19
Iteration:  3750charge 0 multiplicity 1
 C         4.286775         0.937239         2.491423
 C         3.172170         0.482072         1.592423
 C         1.735171         0.373707         1.911039
 C         1.327961         0.402947         0.436220
 C        -0.143820         0.311024         0.034719
 O         1.972446         1.495702        -0.164137
 C         3.248089         1.217136         0.262869
 C         3.408199        -0.246676         0.347258
 O         2.114200        -0.724832        -0.050455
 H         4.144642         2.024713         2.606032
 H         4.348814         0.531741         3.529179
 H         5.300301         0.818214         2.022170
 H         1.374735        -0.522845         2.415193
 H         1.264767         1.257563         2.415434
 H        -0.267657         0.508870        -0.995285
 H        -0.547175        -0.667843         0.310253
 H        -0.798302         1.005643         0.529365
 H         4.039196         1.902782         0.034763
 H         4.261865        -0.955562         0.221289
