19
Iteration:  4373charge 0 multiplicity 1
 C         4.340389         0.865270         2.606328
 C         3.278000         0.509108         1.607001
 C         1.774344         0.538150         1.966130
 C         1.263132         0.501049         0.355869
 C        -0.169359         0.171072         0.050870
 O         1.929612         1.529308        -0.180576
 C         3.324700         1.177547         0.318663
 C         3.339076        -0.309090         0.178349
 O         2.053389        -0.686887        -0.074808
 H         3.828592         1.564483         3.351227
 H         4.847373         0.076279         3.235716
 H         5.042715         1.505947         2.026515
 H         1.579177        -0.403751         2.440673
 H         1.515575         1.416813         2.475920
 H        -0.464260         0.007115        -0.951134
 H        -0.131195        -0.922121         0.442883
 H        -0.957658         0.662055         0.640028
 H         4.050450         2.077967         0.207888
 H         4.076469        -0.927178        -0.220312
