19
Iteration:  4924
 C         4.366410         0.796545         2.686302
 C         3.240936         0.558776         1.577207
 C         1.705199         0.610536         1.841271
 C         1.263195         0.542585         0.462171
 C        -0.162132         0.020882         0.120804
 O         1.980122         1.583352        -0.232218
 C         3.326050         1.202012         0.232340
 C         3.374726        -0.305281         0.294740
 O         2.021486        -0.681518        -0.112880
 H         4.181277         1.590575         3.410982
 H         4.680728        -0.087596         3.239462
 H         5.232769         1.115916         2.079818
 H         1.328672        -0.130788         2.509200
 H         1.650930         1.632350         2.156700
 H        -0.522131        -0.012629        -0.885372
 H        -0.249559        -1.046264         0.571455
 H        -0.941487         0.462373         0.772848
 H         4.037333         1.865651        -0.169123
 H         4.121120        -0.952704        -0.180980
