19
Iteration:  4860
 C         4.393960         0.837012         2.687247
 C         3.286829         0.678718         1.586942
 C         1.856944         0.373944         1.961214
 C         1.248045         0.265832         0.487680
 C        -0.174428         0.399538        -0.038836
 O         1.842858         1.459706        -0.208975
 C         3.206019         1.386698         0.256501
 C         3.373123        -0.242377         0.184145
 O         2.089886        -0.866662        -0.054128
 H         4.491763         1.934758         2.954799
 H         4.036685         0.304078         3.604118
 H         5.432128         0.514232         2.358796
 H         1.643893        -0.514767         2.473388
 H         1.403748         1.093321         2.589627
 H        -0.211396         0.012127        -1.047275
 H        -0.952507        -0.147598         0.611950
 H        -0.252533         1.461259         0.174409
 H         3.806579         2.075669        -0.318302
 H         4.307481        -0.651470        -0.126295
