19
Iteration:  3982
 C         4.388985         0.630044         2.603728
 C         3.187843         0.659702         1.626868
 C         1.692544         0.634396         1.836964
 C         1.344344         0.343183         0.349523
 C        -0.102253         0.226889         0.182119
 O         1.955008         1.464049        -0.386642
 C         3.165109         1.420494         0.302907
 C         3.341851        -0.250553         0.429710
 O         2.147940        -0.771812        -0.085038
 H         4.392841         1.428662         3.414274
 H         4.367193        -0.296537         3.231308
 H         5.349945         0.805881         2.072117
 H         1.309762        -0.319049         2.348466
 H         1.176815         1.466948         2.351869
 H        -0.467227         0.070020        -0.865891
 H        -0.478138        -0.614567         0.689884
 H        -0.717082         0.914482         0.708328
 H         3.798019         2.165304        -0.122099
 H         4.322394        -0.694492         0.292052
