19
Iteration:  3796
 C         4.349587         0.731964         2.665238
 C         3.256739         0.599564         1.598106
 C         1.759538         0.558772         1.909251
 C         1.251344         0.363552         0.449521
 C        -0.214218         0.193731         0.057499
 O         1.839847         1.451779        -0.317021
 C         3.292039         1.329264         0.200128
 C         3.423947        -0.201565         0.353436
 O         2.174722        -0.697514        -0.037593
 H         4.196096         1.386700         3.540367
 H         4.386005        -0.296396         3.133499
 H         5.381415         0.931737         2.331562
 H         1.480809        -0.264604         2.603372
 H         1.485867         1.484329         2.431047
 H        -0.187732        -0.094093        -1.048857
 H        -0.713799        -0.539574         0.672865
 H        -0.852715         1.134001         0.136582
 H         3.929403         2.085101        -0.302836
 H         4.153852        -0.826113        -0.060121
