19
Iteration:  2835charge 0 multiplicity 1
 C         4.375125         0.804471         2.637215
 C         3.230825         0.670245         1.611230
 C         1.750362         0.577729         1.838586
 C         1.268231         0.318829         0.405962
 C        -0.232858         0.266872         0.091252
 O         1.961505         1.513286        -0.325143
 C         3.316649         1.258637         0.250181
 C         3.389017        -0.241279         0.362258
 O         2.081484        -0.857044        -0.013932
 H         4.414197         1.840356         2.848305
 H         3.947290         0.283541         3.489904
 H         5.284747         0.323886         2.298888
 H         1.536157        -0.167040         2.635052
 H         1.482632         1.614689         2.166717
 H        -0.582029        -0.705905        -0.286952
 H        -0.821297         0.497099         1.041656
 H        -0.434127         1.065637        -0.635263
 H         4.144577         1.885755        -0.218082
 H         4.093607        -1.036891         0.285456
