19
Iteration:  4192charge 0 multiplicity 1
 C         4.343468         0.750825         2.514336
 C         3.147692         0.597939         1.667749
 C         1.640862         0.512720         1.838804
 C         1.325133         0.401062         0.360686
 C        -0.127100         0.301184         0.161769
 O         1.908433         1.469214        -0.263698
 C         3.210944         1.265711         0.200557
 C         3.396009        -0.193418         0.380656
 O         2.224998        -0.787107        -0.022348
 H         4.238614         1.480361         3.409105
 H         4.646681        -0.290957         2.864495
 H         5.200825         1.184200         1.904667
 H         1.313403        -0.419176         2.359134
 H         1.261065         1.366253         2.483023
 H        -0.326379         0.087328        -0.900339
 H        -0.525606        -0.500308         0.843039
 H        -0.542285         1.257951         0.541776
 H         3.976395         1.999496         0.056777
 H         4.298080        -0.742460         0.081726
