19
Iteration:  3757charge 0 multiplicity 1
 C         4.283080         0.924663         2.452084
 C         3.167564         0.567921         1.638328
 C         1.637126         0.375413         1.902365
 C         1.346106         0.355332         0.393344
 C        -0.138886         0.337648         0.116457
 O         1.973498         1.522113        -0.168428
 C         3.284646         1.215078         0.278746
 C         3.387360        -0.268339         0.323631
 O         2.164379        -0.742459        -0.044580
 H         4.189108         2.022630         2.609065
 H         4.264601         0.344007         3.363403
 H         5.174166         0.741714         1.837893
 H         1.222897        -0.586468         2.257539
 H         1.186859         1.242075         2.379245
 H        -0.151064         0.354899        -0.983202
 H        -0.381073        -0.720604         0.341064
 H        -0.746304         1.072461         0.607173
 H         4.109858         1.906979         0.123406
 H         4.243856        -0.974488         0.182023
