19
Iteration:  3612
 C         4.310199         0.848728         2.716424
 C         3.323419         0.579652         1.540391
 C         1.822886         0.447553         1.979036
 C         1.291584         0.420031         0.502280
 C        -0.076581         0.243613        -0.091987
 O         1.881470         1.507209        -0.181904
 C         3.203528         1.264325         0.077732
 C         3.324892        -0.224347         0.184681
 O         2.032262        -0.773213         0.118792
 H         4.061137         1.800206         3.238104
 H         4.267221         0.011578         3.442443
 H         5.377806         0.959536         2.430535
 H         1.480967        -0.483499         2.446222
 H         1.696168         1.372008         2.543323
 H         0.146352        -0.111845        -1.150546
 H        -0.776941        -0.367929         0.490723
 H        -0.582443         1.284056        -0.151780
 H         4.138398         1.670591        -0.238787
 H         4.086549        -0.862795        -0.371679
