19
Iteration:  4687
 C         4.343309         0.835718         2.500823
 C         3.263113         0.477240         1.627872
 C         1.725448         0.466528         1.921635
 C         1.311285         0.435737         0.337041
 C        -0.188077         0.155480         0.072571
 O         1.911539         1.570249        -0.165514
 C         3.249779         1.303173         0.382726
 C         3.361400        -0.245375         0.296607
 O         2.117932        -0.686020        -0.114965
 H         4.444870         1.891275         2.674167
 H         4.257473         0.262169         3.394088
 H         5.244553         0.458576         2.050111
 H         1.463395        -0.516415         2.396731
 H         1.435658         1.266402         2.628794
 H        -0.345915        -0.022671        -0.932701
 H        -0.439105        -0.706091         0.733278
 H        -0.772905         0.925606         0.541668
 H         4.124604         1.925723         0.016157
 H         4.238223        -0.797426        -0.122630
