19
Iteration:  1216charge 0 multiplicity 1
 C         4.420121         0.324325         2.622506
 C         3.377693         0.410641         1.546658
 C         1.931396        -0.200149         1.806667
 C         1.267288         0.319431         0.441814
 C        -0.113149         0.199550         0.015735
 O         1.619608         1.656695         0.375209
 C         3.084681         1.546946         0.577068
 C         3.379738         0.255862        -0.034686
 O         2.194733        -0.241513        -0.490708
 H         4.051808         1.203446         3.284607
 H         4.515319        -0.685847         3.033942
 H         5.367331         0.709494         2.288271
 H         1.840002        -1.334202         1.907427
 H         1.499320         0.233496         2.752229
 H        -0.664409         0.800678         0.770358
 H        -0.180826         0.757280        -0.979013
 H        -0.607771        -0.840172         0.027734
 H         3.719215         2.316558         0.216206
 H         4.171206        -0.086817        -0.592478
