19
Iteration:  3636charge 0 multiplicity 1
 C         4.286141         0.736362         2.580626
 C         3.195674         0.605350         1.578524
 C         1.788205         0.598067         1.876651
 C         1.324295         0.402372         0.427361
 C        -0.209731         0.170860         0.069869
 O         1.937971         1.503938        -0.210705
 C         3.286963         1.363286         0.197083
 C         3.404879        -0.304701         0.381041
 O         2.098014        -0.737111        -0.031286
 H         4.112874         1.509314         3.394228
 H         4.466977        -0.250989         3.052467
 H         5.225987         0.967839         2.035985
 H         1.443876        -0.289998         2.458956
 H         1.425143         1.546377         2.275315
 H        -0.111120        -0.279285        -0.946527
 H        -0.708715        -0.443737         0.765735
 H        -0.779826         1.095812        -0.010977
 H         4.148318         1.986873        -0.045899
 H         4.202790        -0.996591         0.124532
