19
Iteration:  4425
 C         4.341990         0.761674         2.651409
 C         3.314026         0.631048         1.572214
 C         1.773363         0.400318         1.982159
 C         1.221025         0.372514         0.461225
 C        -0.182067         0.346058         0.040618
 O         1.857599         1.439602        -0.192913
 C         3.194657         1.330886         0.147177
 C         3.448555        -0.125496         0.212190
 O         2.176175        -0.825008        -0.032743
 H         4.548096         1.694387         3.210464
 H         4.028402        -0.106612         3.263646
 H         5.342449         0.446824         2.287650
 H         1.539552        -0.537127         2.515533
 H         1.393356         1.288032         2.470279
 H        -0.292803        -0.078094        -0.906609
 H        -0.950787        -0.204423         0.616865
 H        -0.676531         1.281805         0.184729
 H         3.703863         2.243877        -0.274758
 H         4.407255        -0.499280         0.002959
