19
Iteration:   719
 C         4.400632         0.186221         2.523468
 C         3.352046         0.210661         1.461832
 C         2.021364        -0.397181         1.676763
 C         1.297588         0.347589         0.469702
 C        -0.117810         0.049631        -0.030939
 O         1.597572         1.726252         0.742580
 C         3.057468         1.571792         0.855533
 C         3.376894         0.459068        -0.133517
 O         2.166315         0.085235        -0.714595
 H         4.023851         0.727566         3.363393
 H         4.662413        -0.779202         2.935036
 H         5.319014         0.768200         2.253888
 H         2.061340        -1.463152         1.340195
 H         1.554592        -0.266570         2.638437
 H        -0.319268         0.569833        -0.975208
 H        -0.366290        -0.968891        -0.284738
 H        -0.842450         0.503018         0.655950
 H         3.659401         2.416151         1.177546
 H         4.277899         0.386188        -0.850574
