19
Iteration:   277charge 0 multiplicity 1
 C         4.700809        -0.105058         2.324972
 C         3.410289         0.277166         1.432141
 C         2.082347        -0.543852         1.391316
 C         1.337228         0.291108         0.339041
 C        -0.073103         0.034342        -0.107321
 O         1.369199         1.656395         1.036204
 C         2.797134         1.648478         1.121061
 C         3.339129         0.782139         0.015866
 O         2.196511         0.248195        -0.704546
 H         4.269077        -0.304872         3.327199
 H         5.118610        -1.145304         1.989820
 H         5.490562         0.590562         2.453824
 H         1.992131        -1.586220         1.171365
 H         1.573846        -0.123531         2.249548
 H         0.078526        -0.026802        -1.203554
 H        -0.587028        -0.853208         0.231744
 H        -0.682644         0.901771         0.142325
 H         3.206389         2.623217         1.373987
 H         4.266217         0.857501        -0.659097
