19
Iteration:   206
 C         4.541815        -0.078275         2.370723
 C         3.398032         0.222822         1.367770
 C         2.093140        -0.621310         1.412337
 C         1.272290         0.312065         0.445394
 C        -0.178070        -0.002442        -0.092927
 O         1.449839         1.589728         1.073559
 C         2.889363         1.572833         1.081530
 C         3.389104         0.924134        -0.081499
 O         2.272586         0.381504        -0.756473
 H         4.312590        -0.052302         3.508042
 H         4.726466        -1.136217         2.196414
 H         5.559500         0.470946         2.199206
 H         2.194139        -1.649529         1.036863
 H         1.626890        -0.404518         2.414035
 H        -0.388454        -1.009781         0.319129
 H        -1.074102         0.644748         0.132220
 H        -0.078758        -0.077868        -1.211780
 H         3.289804         2.526833         1.497939
 H         4.312133         1.212381        -0.619764
