19
Iteration:  1070charge 0 multiplicity 1
 C         4.487076         0.260448         2.470211
 C         3.199933         0.354741         1.568383
 C         1.818402        -0.238072         1.745149
 C         1.280200         0.273241         0.392218
 C        -0.172129         0.128787         0.060409
 O         1.644322         1.789089         0.486830
 C         3.051823         1.609952         0.697934
 C         3.527838         0.281956         0.013366
 O         2.272885        -0.201706        -0.584005
 H         4.260008         0.992700         3.178244
 H         4.740767        -0.703999         2.979598
 H         5.398405         0.750983         2.035754
 H         1.774621        -1.284252         1.596944
 H         1.296302         0.019128         2.665148
 H        -0.470832        -0.897107         0.342209
 H        -0.648125         0.829274         0.765054
 H        -0.425159         0.355606        -0.958541
 H         3.620233         2.519239         0.692064
 H         4.374662        -0.030003        -0.543278
