19
Iteration:  1052
 C         4.356547         0.356628         2.489533
 C         3.261050         0.217513         1.506240
 C         1.885629        -0.260433         1.729681
 C         1.351673         0.382886         0.424382
 C        -0.088217         0.094624         0.095638
 O         1.688426         1.723644         0.454980
 C         3.078021         1.529772         0.760545
 C         3.380996         0.309287         0.026001
 O         2.195781        -0.113748        -0.615528
 H         4.212774         1.131936         3.347528
 H         4.689415        -0.629835         2.747098
 H         5.277644         0.676296         2.033542
 H         1.754517        -1.397981         1.780168
 H         1.346971         0.317459         2.528227
 H        -0.463584        -0.669408         0.823224
 H        -0.708341         1.001616         0.188998
 H        -0.051497        -0.268505        -0.979973
 H         3.721735         2.422218         0.944981
 H         4.277148         0.096311        -0.659780
