19
Iteration:  4553charge 0 multiplicity 1
 C         4.353862         0.803410         2.688774
 C         3.296112         0.648086         1.546564
 C         1.856938         0.448076         1.923175
 C         1.256272         0.411901         0.516258
 C        -0.118376         0.335147         0.011609
 O         1.814666         1.457245        -0.194907
 C         3.191059         1.314784         0.231247
 C         3.373153        -0.248310         0.210589
 O         2.107768        -0.853040        -0.079379
 H         3.923982         1.261616         3.575431
 H         4.849261        -0.086718         3.082036
 H         5.163439         1.404158         2.269771
 H         1.686274        -0.437359         2.571766
 H         1.550714         1.241272         2.643237
 H        -0.178816         0.807450        -0.992441
 H        -0.594418        -0.668693         0.049158
 H        -0.873410         1.011811         0.494418
 H         3.871210         2.008182        -0.346401
 H         4.250492        -0.800855         0.066157
