19
Iteration:  2827charge 0 multiplicity 1
 C         4.293347         0.832108         2.624411
 C         3.197880         0.625289         1.586003
 C         1.759482         0.608957         1.833168
 C         1.286177         0.350896         0.421561
 C        -0.155813         0.260003         0.113344
 O         1.989113         1.480339        -0.240601
 C         3.307432         1.234788         0.180694
 C         3.340361        -0.335147         0.385372
 O         2.074974        -0.791846        -0.033182
 H         4.517848         1.913945         2.880670
 H         4.235970         0.332795         3.584752
 H         5.261234         0.426451         2.244859
 H         1.455701        -0.230912         2.454335
 H         1.470049         1.592979         2.208849
 H        -0.414150        -0.724936        -0.319215
 H        -0.803244         0.478188         0.912511
 H        -0.483590         1.041510        -0.624086
 H         4.013246         1.946103        -0.323646
 H         4.293894        -0.750201         0.191444
