19
Iteration:  4202
 C         4.291918         0.745489         2.471146
 C         3.103045         0.653355         1.592677
 C         1.673149         0.390247         1.931998
 C         1.338783         0.260676         0.418263
 C        -0.132150         0.357463         0.170961
 O         1.920176         1.468733        -0.297589
 C         3.322944         1.294260         0.229867
 C         3.398187        -0.169939         0.419166
 O         2.200132        -0.745353        -0.043923
 H         4.051310         1.584512         3.208674
 H         4.784998        -0.140335         2.985956
 H         5.108970         1.170759         1.826685
 H         1.427672        -0.557344         2.509975
 H         1.081434         1.342119         2.255667
 H        -0.463537         0.251705        -0.860979
 H        -0.778606        -0.320981         0.838541
 H        -0.390837         1.422475         0.316233
 H         3.958093         2.088576        -0.072920
 H         4.268141        -0.829053         0.210945
