19
Iteration:  1304charge 0 multiplicity 1
 C         4.346122         0.159844         2.519055
 C         3.265318         0.526158         1.476853
 C         1.840152        -0.032247         1.777607
 C         1.323421         0.310198         0.495733
 C        -0.115306         0.168530         0.046193
 O         1.667587         1.709603         0.331548
 C         3.074439         1.637029         0.470428
 C         3.472224         0.285726         0.072807
 O         2.243606        -0.443529        -0.364804
 H         4.272006         0.698531         3.569628
 H         4.577645        -0.906802         2.638236
 H         5.272337         0.689239         2.371696
 H         1.662837        -1.144946         1.852870
 H         1.492085         0.561974         2.657250
 H        -0.225362        -0.918250        -0.218725
 H        -0.867540         0.391156         0.897044
 H        -0.385279         0.902352        -0.730757
 H         3.615269         2.606002         0.282271
 H         4.444741         0.194591        -0.520463
