19
Iteration:   377
 C         4.436813        -0.005242         2.354956
 C         3.334664         0.243917         1.370869
 C         2.104160        -0.548176         1.447750
 C         1.328837         0.317242         0.381551
 C        -0.021389         0.115096        -0.012840
 O         1.437210         1.642939         0.966766
 C         2.868015         1.627717         1.038776
 C         3.377493         0.743955        -0.027395
 O         2.254465         0.165613        -0.719644
 H         4.182120         0.354022         3.321123
 H         4.703284        -1.128419         2.310655
 H         5.450426         0.364963         2.111701
 H         2.363910        -1.584315         1.280781
 H         1.603543        -0.461309         2.467266
 H        -0.655111         0.331144         0.867249
 H        -0.354584         0.770777        -0.824814
 H        -0.191244        -0.938819        -0.284981
 H         3.362403         2.545989         1.333605
 H         4.230446         0.890555        -0.599577
