19
Iteration:  2145
 C         4.348955         0.828446         2.608772
 C         3.240901         0.544750         1.591527
 C         1.761794         0.326695         1.951568
 C         1.290962         0.330057         0.404528
 C        -0.195018         0.397146         0.045344
 O         1.840100         1.533335        -0.119796
 C         3.237846         1.236867         0.150436
 C         3.425940        -0.221429         0.273984
 O         2.193960        -0.747151        -0.081700
 H         4.415428         1.859483         2.900396
 H         4.192421         0.143757         3.513771
 H         5.256709         0.498732         2.133606
 H         1.371502        -0.507666         2.572978
 H         1.338601         1.283977         2.319647
 H        -0.287255         1.112433        -0.775163
 H        -0.755011        -0.587452         0.097226
 H        -0.693378         1.077228         0.726894
 H         3.908206         2.012576         0.023808
 H         4.293100        -0.816784        -0.039327
