19
Iteration:   245
 C         4.472623         0.027531         2.185938
 C         3.237779         0.193844         1.497346
 C         2.069996        -0.755954         1.367096
 C         1.338106         0.312958         0.426798
 C        -0.119309         0.062978         0.077393
 O         1.436481         1.614405         0.876797
 C         2.814441         1.623449         1.109145
 C         3.480516         0.766457         0.061874
 O         2.364160         0.439587        -0.724788
 H         4.397017        -0.003105         3.241331
 H         4.845449        -1.018989         1.928303
 H         5.121642         0.806161         1.892026
 H         2.235396        -1.748264         0.949694
 H         1.526920        -0.807094         2.361590
 H        -0.149794        -0.859071        -0.530692
 H        -0.674477        -0.094849         0.983676
 H        -0.459337         0.868395        -0.557130
 H         3.252863         2.414817         1.696725
 H         4.471859         0.827475        -0.521409
