19
Iteration:  4111
 C         4.369333         0.750058         2.644338
 C         3.247773         0.661112         1.628058
 C         1.712405         0.467873         1.902571
 C         1.273465         0.280541         0.384432
 C        -0.270530         0.258500         0.119994
 O         1.944716         1.469211        -0.315097
 C         3.220685         1.306445         0.227153
 C         3.478296        -0.167020         0.294175
 O         2.138200        -0.722947        -0.004254
 H         4.503521         1.757396         3.035022
 H         4.284861         0.110900         3.538620
 H         5.299013         0.495358         2.154138
 H         1.482750        -0.439088         2.527669
 H         1.367095         1.418416         2.332396
 H        -0.456940         0.515779        -0.960875
 H        -0.684615        -0.712930         0.258602
 H        -0.829829         1.038089         0.641102
 H         3.984590         1.958484        -0.295178
 H         4.267086        -0.802511         0.032992
