19
Iteration:  4028
 C         4.340167         0.764974         2.692029
 C         3.348650         0.719527         1.526650
 C         1.836262         0.494764         1.888363
 C         1.284139         0.329504         0.441126
 C        -0.050784         0.198056        -0.016932
 O         1.841584         1.572274        -0.147191
 C         3.283077         1.226612         0.162383
 C         3.270823        -0.231929         0.366445
 O         2.019290        -0.772309        -0.078489
 H         3.959253         1.411420         3.555128
 H         4.263090        -0.249963         3.137641
 H         5.335843         1.139667         2.382479
 H         1.673824        -0.269182         2.663862
 H         1.372159         1.401560         2.336362
 H         0.085964        -0.313952        -0.957428
 H        -0.755291        -0.362129         0.706144
 H        -0.502965         1.195771         0.014313
 H         3.899238         1.994907        -0.373220
 H         4.063684        -0.793318        -0.011580
