19
Iteration:  1481
 C         4.454097         0.361928         2.621535
 C         3.265712         0.414969         1.529730
 C         1.741335         0.078927         1.820834
 C         1.311623         0.340303         0.367837
 C        -0.169104         0.110534         0.088226
 O         1.732457         1.740473         0.173772
 C         3.164627         1.555544         0.529429
 C         3.473299         0.081047         0.072116
 O         2.203170        -0.413558        -0.357983
 H         4.123656         0.817142         3.633497
 H         4.731180        -0.652463         2.792876
 H         5.218417         0.937312         2.127538
 H         1.427428        -0.935163         2.114478
 H         1.300737         0.883092         2.459584
 H        -0.758727        -0.320707         0.921066
 H        -0.687318         0.992436        -0.147758
 H        -0.467190        -0.573083        -0.660692
 H         3.815705         2.502301         0.510337
 H         4.347319        -0.208346        -0.593757
