19
Iteration:   121charge 0 multiplicity 1
 C         4.567913        -0.053979         2.136793
 C         3.253078         0.163690         1.491780
 C         2.020999        -0.713862         1.358374
 C         1.402288         0.309654         0.290953
 C        -0.008318         0.070043         0.020516
 O         1.442798         1.579413         0.958805
 C         2.783541         1.620233         1.290044
 C         3.375781         0.872614         0.072755
 O         2.272930         0.405202        -0.769085
 H         4.397861        -0.225477         3.208427
 H         5.174809        -0.771846         1.666172
 H         5.172828         0.855068         2.083854
 H         2.222269        -1.727148         0.978520
 H         1.418293        -0.878066         2.191557
 H        -0.540462         1.021525         0.047304
 H        -0.200498        -0.515562        -0.908521
 H        -0.370106        -0.447649         0.916198
 H         3.080196         2.544809         1.818676
 H         4.355143         1.188649        -0.389551
