19
Iteration:  3555
 C         4.399197         0.815854         2.592675
 C         3.116785         0.512585         1.643562
 C         1.616532         0.529092         1.806033
 C         1.318268         0.472651         0.357778
 C        -0.106425         0.236518         0.200868
 O         1.985420         1.521628        -0.348431
 C         3.218826         1.238686         0.277342
 C         3.419620        -0.263900         0.354302
 O         2.123653        -0.772108        -0.030091
 H         4.249378         1.878504         2.706030
 H         4.541061         0.452877         3.638899
 H         5.255783         0.650505         1.953582
 H         1.091620        -0.299223         2.255220
 H         1.295958         1.364382         2.435366
 H        -0.444461         0.300343        -0.861666
 H        -0.306040        -0.928383         0.497844
 H        -0.640782         1.089384         0.743364
 H         4.083802         1.840229         0.232910
 H         4.255424        -0.869490         0.222804
