19
Iteration:   956charge 0 multiplicity 1
 C         4.547726         0.098143         2.381505
 C         3.260005         0.400154         1.641513
 C         1.794538        -0.145387         1.758399
 C         1.346041         0.294707         0.364952
 C        -0.128993         0.004031        -0.011738
 O         1.615620         1.811159         0.539411
 C         3.023879         1.665555         0.778222
 C         3.393317         0.303561         0.050507
 O         2.250103        -0.114128        -0.632421
 H         4.481009         0.380100         3.416845
 H         4.823136        -0.948057         2.165494
 H         5.447637         0.650966         2.047661
 H         1.791978        -1.272042         1.742171
 H         1.259942         0.266812         2.600026
 H        -0.579453         0.805675        -0.585740
 H        -0.114245        -0.939089        -0.535375
 H        -0.685281        -0.249175         0.916055
 H         3.483026         2.543310         1.236656
 H         4.313555         0.171848        -0.503692
