19
Iteration:  1705
 C         4.358642         0.524704         2.597373
 C         3.261671         0.472710         1.539991
 C         1.873136         0.195477         1.878117
 C         1.244004         0.306160         0.392218
 C        -0.222817         0.255093         0.015081
 O         1.717094         1.646284         0.148331
 C         3.181682         1.464020         0.399774
 C         3.483342        -0.010286         0.164558
 O         2.225016        -0.583315        -0.301849
 H         4.100084         1.241630         3.336816
 H         4.542226        -0.526547         2.951853
 H         5.412676         0.773600         2.116637
 H         1.816241        -0.803835         2.351414
 H         1.420508         0.902123         2.593314
 H        -0.707628         0.882361         0.834151
 H        -0.436986         0.952292        -0.844130
 H        -0.632168        -0.715863        -0.164073
 H         3.807787         2.271968         0.225675
 H         4.363507        -0.498787        -0.224110
