19
Iteration:  1437
 C         4.357348         0.297852         2.486760
 C         3.277938         0.496598         1.551440
 C         1.769736         0.055138         1.844381
 C         1.303915         0.317975         0.466243
 C        -0.093198         0.053074         0.041643
 O         1.763922         1.758056         0.277155
 C         3.134318         1.559181         0.455065
 C         3.464446         0.138819         0.066091
 O         2.176510        -0.364340        -0.358905
 H         4.153096         0.958508         3.398985
 H         4.111229        -0.690185         2.820631
 H         5.320761         0.424306         2.054904
 H         1.732930        -0.948499         2.275247
 H         1.314233         0.755918         2.577065
 H        -0.820628         0.717113         0.533630
 H        -0.282203         0.233039        -1.002614
 H        -0.318947        -0.953083         0.290581
 H         3.739298         2.495278         0.394080
 H         4.347937        -0.316904        -0.404620
