19
Iteration:   933charge 0 multiplicity 1
 C         4.414446         0.142551         2.401767
 C         3.299958         0.230854         1.500328
 C         1.865321        -0.235148         1.791941
 C         1.316546         0.393642         0.486917
 C        -0.086148         0.022829        -0.057597
 O         1.614059         1.772333         0.560678
 C         3.013726         1.629566         0.762581
 C         3.431966         0.393544        -0.058045
 O         2.230252        -0.049323        -0.502403
 H         4.123543         0.647673         3.365420
 H         4.795933        -0.876653         2.441966
 H         5.297929         0.666575         2.074302
 H         2.019968        -1.350997         1.674519
 H         1.353898         0.036217         2.713467
 H        -0.124140         0.424057        -1.093677
 H        -0.069751        -1.058062         0.023908
 H        -0.947617         0.311977         0.566815
 H         3.623024         2.494362         0.617632
 H         4.258395         0.214330        -0.671387
