19
Iteration:    31
 C         4.643567        -0.202045         2.107870
 C         3.332671         0.170786         1.456337
 C         2.178672        -0.676643         1.153140
 C         1.328087         0.345262         0.309583
 C        -0.158348        -0.069149         0.054217
 O         1.337380         1.596366         1.017972
 C         2.714088         1.619282         1.334544
 C         3.369737         0.992386         0.170715
 O         2.350840         0.542437        -0.729942
 H         4.542159        -0.125383         3.227497
 H         4.978940        -1.129516         1.812660
 H         5.536868         0.436878         1.798453
 H         2.345219        -1.589663         0.659636
 H         1.620568        -1.025228         2.076158
 H        -0.291391        -1.186666         0.282036
 H        -0.781256         0.570547         0.723937
 H        -0.372053         0.053952        -1.068290
 H         3.067279         2.619002         1.637950
 H         4.343445         1.027623        -0.206516
