19
Iteration:  4124
 C         4.304485         0.729997         2.636822
 C         3.265118         0.607580         1.525075
 C         1.836986         0.585625         1.831432
 C         1.297941         0.409038         0.441647
 C        -0.157039         0.190090         0.028570
 O         1.872400         1.540378        -0.211967
 C         3.245261         1.314208         0.170173
 C         3.352265        -0.201507         0.292880
 O         2.126578        -0.836693         0.088280
 H         4.315940         1.761320         3.096008
 H         4.024258        -0.109788         3.343522
 H         5.347060         0.488726         2.328920
 H         1.532925        -0.380839         2.375264
 H         1.336896         1.431195         2.395660
 H        -0.332760         0.485114        -0.999985
 H        -0.529316        -0.858306         0.273173
 H        -0.678140         0.827611         0.755633
 H         3.934703         2.145796        -0.047320
 H         4.244821        -0.698863        -0.095768
