19
Iteration:   764charge 0 multiplicity 1
 C         4.457374         0.096523         2.383361
 C         3.201653         0.366819         1.577719
 C         1.982192        -0.395644         1.682523
 C         1.315835         0.305254         0.347643
 C        -0.121304         0.094954         0.075273
 O         1.551124         1.741152         0.552021
 C         2.963103         1.603309         0.896952
 C         3.454274         0.446553         0.007870
 O         2.304498         0.023479        -0.632914
 H         4.486335         0.242955         3.458595
 H         4.563149        -0.945507         2.253358
 H         5.283879         0.662649         1.952199
 H         2.119573        -1.483682         1.700409
 H         1.347617        -0.044022         2.499386
 H        -0.672873         1.009053         0.254295
 H        -0.178301        -0.033633        -1.001737
 H        -0.492189        -0.735317         0.683050
 H         3.342450         2.599898         0.867540
 H         4.384048         0.292219        -0.454405
