19
Iteration:  2022
 C         4.413156         0.664895         2.626085
 C         3.224635         0.593219         1.578104
 C         1.756961         0.344858         1.958097
 C         1.302540         0.286545         0.434538
 C        -0.166365         0.374899         0.087253
 O         1.844370         1.562703        -0.177717
 C         3.167589         1.333941         0.329535
 C         3.405045        -0.165724         0.224893
 O         2.180172        -0.723739        -0.142035
 H         3.997686         1.313144         3.298974
 H         4.640183        -0.352592         3.037260
 H         5.350392         1.165714         2.303751
 H         1.728927        -0.707657         2.308869
 H         1.236145         1.156128         2.521368
 H        -0.906172         0.003805         0.752901
 H        -0.444966         1.385763        -0.113608
 H        -0.309582         0.010857        -0.938118
 H         3.698795         2.100611        -0.219752
 H         4.293192        -0.719337        -0.131040
