19
Iteration:   948charge 0 multiplicity 1
 C         4.493509         0.115926         2.376069
 C         3.238018         0.390514         1.556602
 C         1.887431        -0.228614         1.737750
 C         1.294301         0.363507         0.425383
 C        -0.060529        -0.005602        -0.011356
 O         1.628983         1.792856         0.540103
 C         3.037429         1.635060         0.800222
 C         3.384555         0.327319         0.104552
 O         2.193587        -0.095460        -0.638376
 H         4.441534         0.355756         3.388337
 H         4.746704        -0.975354         2.361329
 H         5.292789         0.801957         1.950384
 H         1.663879        -1.274187         1.859523
 H         1.519346         0.343581         2.593823
 H        -0.430389         0.622861        -0.795140
 H         0.059647        -0.978091        -0.503289
 H        -0.791752         0.046151         0.803207
 H         3.543070         2.632636         0.962760
 H         4.406244         0.099189        -0.345435
