19
Iteration:  4260
 C         4.213324         0.828128         2.567480
 C         3.273221         0.491945         1.523535
 C         1.825710         0.564014         1.962158
 C         1.297115         0.375008         0.483759
 C        -0.108507         0.081059         0.066029
 O         1.960232         1.634858        -0.112696
 C         3.329457         1.256030         0.181450
 C         3.342218        -0.302312         0.219285
 O         2.014367        -0.682642        -0.062916
 H         4.160303         1.950557         2.844780
 H         3.884564         0.320262         3.537962
 H         5.329848         0.663318         2.377724
 H         1.461352        -0.294001         2.529959
 H         1.685828         1.507075         2.523976
 H         0.031253        -0.301310        -1.022367
 H        -0.631803        -0.705714         0.534833
 H        -0.758888         0.979307         0.095672
 H         4.045115         2.116635         0.054392
 H         4.047849        -1.023884        -0.146279
