19
Iteration:   552charge 0 multiplicity 1
 C         4.557619         0.110183         2.400485
 C         3.291482         0.200314         1.477802
 C         1.908457        -0.551905         1.487633
 C         1.263686         0.353859         0.360030
 C        -0.160765         0.088253         0.087458
 O         1.502149         1.740861         0.714231
 C         2.936338         1.631736         0.987715
 C         3.435545         0.602058         0.011189
 O         2.357984         0.089005        -0.717290
 H         4.354575         0.457844         3.384970
 H         4.957172        -0.959882         2.659873
 H         5.367696         0.770833         1.971107
 H         2.087596        -1.604367         1.248968
 H         1.278006        -0.548671         2.425408
 H        -0.647938         0.956140         0.597100
 H        -0.583769         0.092806        -0.960412
 H        -0.412509        -0.881727         0.610545
 H         3.481525         2.539591         1.282731
 H         4.477154         0.698807        -0.348104
