19
Iteration:   441charge 0 multiplicity 1
 C         4.562143         0.029862         2.291745
 C         3.274465         0.216474         1.474435
 C         1.818714        -0.500996         1.506457
 C         1.341500         0.338099         0.358344
 C        -0.079325         0.064943         0.052094
 O         1.461208         1.649503         0.847873
 C         2.911803         1.626148         1.010888
 C         3.444781         0.706076        -0.018444
 O         2.346541         0.181881        -0.689164
 H         4.462224         0.080799         3.384310
 H         5.069208        -0.973086         1.942955
 H         5.297493         0.784313         1.990097
 H         1.918279        -1.451363         1.096207
 H         1.292031        -0.355027         2.460886
 H        -0.113309        -1.029272         0.007855
 H        -0.739340         0.373181         0.883625
 H        -0.344407         0.520859        -0.911921
 H         3.465397         2.373877         1.541683
 H         4.386325         0.623563        -0.461277
