19
Iteration:   489
 C         4.510447        -0.180084         2.361986
 C         3.376601         0.321681         1.501910
 C         2.009068        -0.456942         1.595126
 C         1.326925         0.337791         0.494001
 C        -0.068523         0.005936        -0.093951
 O         1.458967         1.689561         0.784757
 C         2.902169         1.726448         0.888861
 C         3.379366         0.712420        -0.048801
 O         2.225618         0.150935        -0.608000
 H         4.284206        -0.120800         3.444589
 H         4.770389        -1.219614         2.002071
 H         5.402022         0.526315         2.168279
 H         2.224379        -1.567705         1.513125
 H         1.605054         0.041243         2.486646
 H         0.098756        -0.007829        -1.180729
 H        -0.381793        -1.020142         0.168894
 H        -0.751187         0.778773         0.260443
 H         3.175825         2.752496         1.181407
 H         4.291192         0.799614        -0.678147
