19
Iteration:  4505charge 0 multiplicity 1
 C         4.336588         0.762616         2.532262
 C         3.235214         0.544200         1.590055
 C         1.726663         0.524645         1.906645
 C         1.329964         0.411609         0.415429
 C        -0.108234         0.226189         0.168427
 O         1.908896         1.540889        -0.226641
 C         3.246292         1.337454         0.269782
 C         3.333973        -0.244875         0.312364
 O         2.140211        -0.784120        -0.117499
 H         4.082394         1.699171         3.093177
 H         4.303279         0.018294         3.378520
 H         5.367770         0.678884         2.140264
 H         1.331149        -0.349047         2.363495
 H         1.220904         1.252407         2.493298
 H        -0.314920         0.326212        -0.908487
 H        -0.288987        -0.803929         0.510429
 H        -0.895234         0.810241         0.596484
 H         3.841263         2.196340         0.173680
 H         4.283998        -0.707029        -0.114294
