19
Iteration:   298
 C         4.553506        -0.146486         2.271493
 C         3.393450         0.263340         1.427339
 C         2.059074        -0.531968         1.634447
 C         1.295536         0.307976         0.503720
 C        -0.086781        -0.024722        -0.205853
 O         1.449623         1.602538         0.980847
 C         2.869941         1.677675         1.023642
 C         3.362856         0.800314        -0.041727
 O         2.209013         0.357487        -0.703224
 H         4.299508        -0.421719         3.346487
 H         5.062545        -1.131644         1.919247
 H         5.230313         0.683613         2.274433
 H         2.305493        -1.478817         1.195714
 H         1.646729        -0.402703         2.608823
 H        -0.063706         0.481289        -1.195623
 H        -0.143932        -1.105838        -0.341824
 H        -0.941814         0.259699         0.424781
 H         3.336997         2.620501         1.307200
 H         4.261233         1.003933        -0.748130
