19
Iteration:  3996charge 0 multiplicity 1
 C         4.327097         0.628296         2.550142
 C         3.170027         0.615382         1.620066
 C         1.686800         0.549117         1.864779
 C         1.282626         0.475181         0.362097
 C        -0.230785         0.215381         0.150201
 O         1.911113         1.419532        -0.372785
 C         3.254102         1.348669         0.283311
 C         3.445538        -0.130294         0.388991
 O         2.227691        -0.770260         0.028630
 H         4.105984         1.371098         3.357673
 H         4.430163        -0.418395         2.873535
 H         5.305357         0.772347         2.024591
 H         1.291424        -0.213993         2.510104
 H         1.430666         1.582527         2.141585
 H        -0.382595        -0.011022        -0.907077
 H        -0.422852        -0.688392         0.857776
 H        -0.554972         1.247540         0.347694
 H         4.020292         2.187318         0.221294
 H         4.251156        -0.668132         0.006233
