19
Iteration:  1340charge 0 multiplicity 1
 C         4.399622         0.355746         2.626762
 C         3.327337         0.372374         1.537561
 C         1.892535        -0.029295         1.792580
 C         1.280207         0.347329         0.450805
 C        -0.178708         0.082837         0.063500
 O         1.750630         1.688697         0.253477
 C         3.134584         1.588275         0.596590
 C         3.454699         0.104529         0.047532
 O         2.091370        -0.274670        -0.512143
 H         3.932445         0.797475         3.480943
 H         4.748033        -0.606129         2.917141
 H         5.169905         0.986209         2.215420
 H         1.812675        -1.060339         2.146510
 H         1.459039         0.650102         2.573185
 H        -0.276672        -0.262802        -0.987969
 H        -0.668065        -0.603495         0.735802
 H        -0.685421         1.062576         0.125270
 H         3.799814         2.390248         0.509271
 H         4.427148         0.153216        -0.396822
