19
Iteration:  4082charge 0 multiplicity 1
 C         4.297669         0.881347         2.522575
 C         3.151284         0.639997         1.643127
 C         1.730365         0.455419         1.845678
 C         1.324335         0.351397         0.329485
 C        -0.085610         0.322272         0.162795
 O         1.937597         1.520965        -0.161827
 C         3.181843         1.219801         0.318698
 C         3.389352        -0.311196         0.380770
 O         2.162396        -0.792842        -0.158203
 H         4.404421         1.998928         2.728686
 H         4.492521         0.214272         3.396441
 H         5.272719         0.697514         1.985119
 H         1.500868        -0.573535         2.228500
 H         1.199141         1.257282         2.430637
 H        -0.409581         0.252208        -0.867960
 H        -0.608340        -0.539878         0.707813
 H        -0.510224         1.280677         0.444661
 H         3.856304         1.994502        -0.059576
 H         4.251377        -0.972329         0.252258
