19
Iteration:  2902charge 0 multiplicity 1
 C         4.353778         0.817140         2.672783
 C         3.311093         0.558163         1.572845
 C         1.781036         0.628865         1.842922
 C         1.230260         0.351219         0.431351
 C        -0.237155         0.139894         0.013793
 O         2.000650         1.534840        -0.205897
 C         3.337860         1.199530         0.209942
 C         3.328599        -0.225690         0.290817
 O         2.021304        -0.704291         0.048468
 H         4.088730         1.768760         3.231637
 H         4.548456        -0.007989         3.370524
 H         5.333379         0.934143         2.123530
 H         1.321997        -0.156265         2.489480
 H         1.435458         1.684095         1.996935
 H        -0.452593        -0.964873         0.116450
 H        -0.980406         0.665340         0.610913
 H        -0.397561         0.458549        -1.087306
 H         4.262952         1.656707        -0.258783
 H         4.142487        -0.983250         0.082133
