19
Iteration:   664charge 0 multiplicity 1
 C         4.546602        -0.010041         2.345352
 C         3.279386         0.312713         1.513511
 C         1.968673        -0.392937         1.643340
 C         1.313966         0.380281         0.383807
 C        -0.190247         0.074014         0.077186
 O         1.523281         1.714947         0.550916
 C         2.893982         1.707078         0.996873
 C         3.457751         0.558368         0.088720
 O         2.357557        -0.017234        -0.689575
 H         4.369388         0.077475         3.427730
 H         4.695528        -1.099431         2.212698
 H         5.499381         0.538665         2.033388
 H         1.778881        -1.506652         1.603126
 H         1.304163        -0.002613         2.381622
 H        -0.177731        -0.761011        -0.657396
 H        -0.780233        -0.134258         0.981760
 H        -0.753310         0.913764        -0.342132
 H         3.214932         2.757545         1.080167
 H         4.429998         0.512214        -0.514206
