19
Iteration:   810charge 0 multiplicity 1
 C         4.457181        -0.011325         2.367667
 C         3.372019         0.415493         1.468280
 C         1.965673        -0.191599         1.768479
 C         1.285928         0.309985         0.490468
 C        -0.067703         0.015691        -0.112321
 O         1.545562         1.779155         0.627056
 C         2.940912         1.650151         0.810125
 C         3.434634         0.447015         0.024838
 O         2.215585        -0.107224        -0.580611
 H         4.189742        -0.035615         3.495458
 H         4.613178        -1.004409         2.090324
 H         5.267645         0.633055         2.269826
 H         1.801167        -1.250247         1.854159
 H         1.472183         0.377795         2.617211
 H        -0.711309        -0.409984         0.655040
 H        -0.475186         0.945228        -0.523966
 H         0.182526        -0.828176        -0.731412
 H         3.543935         2.555154         1.038886
 H         4.184600         0.651420        -0.741389
