19
Iteration:  2820charge 0 multiplicity 1
 C         4.242109         0.850900         2.610117
 C         3.256717         0.577911         1.558617
 C         1.729364         0.631480         1.885860
 C         1.350190         0.421026         0.411515
 C        -0.122695         0.265413         0.097791
 O         1.981307         1.450795        -0.183749
 C         3.264392         1.172970         0.117948
 C         3.336498        -0.349016         0.399852
 O         2.072429        -0.729611        -0.031328
 H         4.460569         1.929623         2.801279
 H         4.215867         0.300959         3.605117
 H         5.208804         0.626638         2.111412
 H         1.331784        -0.217796         2.468558
 H         1.143398         1.476870         2.288286
 H        -0.225547        -0.745012        -0.306166
 H        -0.712946         0.334057         1.051358
 H        -0.327586         0.940242        -0.729294
 H         4.015815         1.808430        -0.213120
 H         4.270917        -0.873018        -0.049840
