19
Iteration:  2446
 C         4.349184         0.863707         2.578643
 C         3.263305         0.680715         1.643908
 C         1.683543         0.557384         1.846395
 C         1.346102         0.349305         0.414110
 C        -0.135313         0.397624         0.101981
 O         1.830256         1.478694        -0.260068
 C         3.308845         1.240688         0.220908
 C         3.334894        -0.373344         0.399644
 O         2.145787        -0.882089        -0.038504
 H         4.253152         1.856047         3.105192
 H         4.252707         0.086211         3.393454
 H         5.356565         0.774073         2.130764
 H         1.541729        -0.369088         2.403285
 H         1.188944         1.441006         2.280319
 H        -0.386463        -0.600074        -0.191297
 H        -0.848575         0.915372         0.881950
 H        -0.076765         1.013417        -0.775736
 H         4.179075         1.728997        -0.371487
 H         4.034004        -1.020021         0.020209
