19
Iteration:  3155charge 0 multiplicity 1
 C         4.352969         0.720373         2.664839
 C         3.257927         0.658255         1.557135
 C         1.733988         0.550430         1.939251
 C         1.332083         0.345111         0.434588
 C        -0.193321         0.268075         0.067743
 O         1.937183         1.442540        -0.323428
 C         3.269495         1.310302         0.202843
 C         3.369886        -0.244463         0.337898
 O         2.088653        -0.744586        -0.009268
 H         4.211539         1.579675         3.344294
 H         4.473831        -0.230448         3.106500
 H         5.251757         0.924664         2.115272
 H         1.503906        -0.326524         2.618675
 H         1.357243         1.444502         2.525472
 H        -0.574896        -0.742521        -0.234653
 H        -0.976456         0.786633         0.742583
 H        -0.361637         0.802498        -0.896893
 H         3.907875         2.179588        -0.148621
 H         4.238913        -0.913992         0.261066
