19
Iteration:   517charge 0 multiplicity 1
 C         4.461641         0.003892         2.357240
 C         3.343394         0.303954         1.435076
 C         2.014180        -0.416722         1.563581
 C         1.330314         0.346927         0.404702
 C        -0.085050        -0.036501        -0.096144
 O         1.492519         1.776322         0.928427
 C         2.986053         1.635724         0.987947
 C         3.382986         0.567637        -0.068553
 O         2.219700         0.110839        -0.711633
 H         4.089683         0.286677         3.344433
 H         4.765680        -1.083210         2.260692
 H         5.373260         0.556272         2.212473
 H         2.173902        -1.484546         1.541118
 H         1.517715        -0.075864         2.510561
 H        -0.550740         0.798224        -0.679775
 H        -0.065355        -0.989906        -0.660370
 H        -0.813966        -0.079500         0.779185
 H         3.423647         2.551035         1.385883
 H         4.396569         0.485290        -0.589425
