19
Iteration:  1674charge 0 multiplicity 1
 C         4.369409         0.582883         2.599317
 C         3.182955         0.353364         1.639313
 C         1.776482         0.105039         1.898612
 C         1.302556         0.415309         0.386410
 C        -0.060248         0.138236         0.077763
 O         1.806665         1.740691         0.059427
 C         3.231693         1.377194         0.408746
 C         3.402472         0.008676         0.117711
 O         2.098858        -0.460011        -0.341142
 H         4.300216         1.150536         3.562278
 H         4.921249        -0.373417         2.871877
 H         5.157616         1.208941         2.158316
 H         1.625014        -0.945010         2.112388
 H         1.345945         0.740847         2.662918
 H        -0.738006         1.023059         0.381872
 H        -0.277319        -0.122582        -0.968256
 H        -0.546153        -0.564571         0.735390
 H         3.944590         2.115505         0.365708
 H         4.228109        -0.503120        -0.347346
