19
Iteration:   655charge 0 multiplicity 1
 C         4.528431        -0.026679         2.290304
 C         3.253125         0.283414         1.594906
 C         1.906959        -0.339527         1.638135
 C         1.358787         0.330615         0.315131
 C        -0.089621         0.030632         0.096662
 O         1.484184         1.732823         0.556645
 C         2.917565         1.694944         0.957813
 C         3.413848         0.505501         0.069499
 O         2.328903         0.082227        -0.630951
 H         4.330738         0.122209         3.446908
 H         4.794765        -1.024947         2.016354
 H         5.425646         0.593546         2.008359
 H         1.797605        -1.461627         1.492156
 H         1.338096         0.014868         2.516074
 H        -0.135191        -0.937606        -0.419142
 H        -0.585884         0.021724         1.053114
 H        -0.422609         0.808725        -0.588675
 H         3.432098         2.655387         1.159504
 H         4.454998         0.435161        -0.470589
