19
Iteration:   461
 C         4.542034        -0.080901         2.229502
 C         3.278411         0.318224         1.554705
 C         1.962859        -0.468952         1.524349
 C         1.328124         0.310356         0.343664
 C        -0.163563         0.007876        -0.002759
 O         1.519317         1.723763         0.766468
 C         2.854561         1.715083         1.071663
 C         3.443390         0.632802         0.069994
 O         2.334074         0.142768        -0.683039
 H         4.466035        -0.176554         3.345459
 H         4.856466        -1.064937         1.848190
 H         5.224911         0.673082         1.975991
 H         2.206007        -1.544601         1.364287
 H         1.454239        -0.313325         2.471178
 H        -0.262034        -0.822757        -0.718022
 H        -0.601665        -0.290857         0.958420
 H        -0.636559         0.962056        -0.266522
 H         3.249076         2.724175         1.173807
 H         4.349717         0.793204        -0.400899
