19
Iteration:  4371charge 0 multiplicity 1
 C         4.344001         0.868325         2.620857
 C         3.303496         0.497199         1.594376
 C         1.783076         0.558576         1.952307
 C         1.268513         0.503033         0.369703
 C        -0.181871         0.138626         0.038180
 O         1.925007         1.538833        -0.182025
 C         3.331910         1.175210         0.324668
 C         3.321320        -0.301670         0.191242
 O         2.038162        -0.692373        -0.068014
 H         3.795707         1.517715         3.378958
 H         4.837006         0.073110         3.244174
 H         5.061848         1.492027         2.029422
 H         1.641684        -0.405293         2.409124
 H         1.516227         1.415800         2.479842
 H        -0.458677         0.110030        -0.981245
 H        -0.124280        -0.924394         0.389108
 H        -0.896571         0.707325         0.624261
 H         3.972281         2.055114         0.166400
 H         4.116573        -0.883408        -0.272296
