19
Iteration:  4516charge 0 multiplicity 1
 C         4.300547         0.757855         2.612288
 C         3.206033         0.618824         1.560870
 C         1.756894         0.448887         1.900089
 C         1.279891         0.418810         0.456290
 C        -0.163193         0.280409         0.102784
 O         1.887954         1.506894        -0.166558
 C         3.228907         1.318473         0.227382
 C         3.417486        -0.212249         0.221302
 O         2.156052        -0.808425        -0.041491
 H         4.227534         1.729104         3.173938
 H         4.425479        -0.160668         3.244724
 H         5.224886         0.991738         2.035972
 H         1.684424        -0.497872         2.363401
 H         1.331273         1.333347         2.327370
 H        -0.223673         0.512427        -0.974949
 H        -0.464378        -0.764615         0.205547
 H        -0.593562         0.996525         0.773868
 H         3.946070         1.938573        -0.227404
 H         4.335058        -0.855863         0.001840
