19
Iteration:  4066charge 0 multiplicity 1
 C         4.285282         0.921739         2.527251
 C         3.265888         0.470460         1.586513
 C         1.672562         0.368911         1.877366
 C         1.303409         0.336996         0.436501
 C        -0.182443         0.265726         0.048336
 O         1.965063         1.591129        -0.138452
 C         3.341818         1.286826         0.220215
 C         3.389872        -0.244252         0.273105
 O         2.083360        -0.765141         0.012545
 H         4.057716         1.893938         2.902502
 H         4.316443         0.273721         3.404100
 H         5.295352         0.903006         2.096698
 H         1.408106        -0.483936         2.512130
 H         1.388939         1.334804         2.275922
 H        -0.421255        -0.024572        -1.013433
 H        -0.614316        -0.457839         0.677411
 H        -0.658232         1.270984         0.184626
 H         4.177684         1.956745         0.013169
 H         4.278874        -0.791909        -0.101450
