19
Iteration:  3455
 C         4.306311         0.845486         2.538367
 C         3.181504         0.636643         1.661184
 C         1.690838         0.588553         1.882260
 C         1.306013         0.336313         0.408278
 C        -0.110107         0.225845         0.109765
 O         2.010926         1.462524        -0.242751
 C         3.297468         1.174133         0.236302
 C         3.333709        -0.252206         0.425755
 O         2.091609        -0.698227        -0.137409
 H         4.236112         1.657665         3.264302
 H         4.502033        -0.132912         3.027770
 H         5.192452         1.002075         1.906966
 H         1.399649        -0.287341         2.453427
 H         1.161401         1.419046         2.322248
 H        -0.461822        -0.265653        -0.846779
 H        -0.524634        -0.456747         0.969380
 H        -0.502955         1.243252         0.201701
 H         4.041735         1.916102        -0.133941
 H         4.168298        -1.009178         0.335531
