19
Iteration:   892charge 0 multiplicity 1
 C         4.384923         0.199061         2.539517
 C         3.346834         0.382692         1.510249
 C         1.989761        -0.332700         1.722576
 C         1.279683         0.243983         0.349641
 C        -0.156551         0.201929         0.076248
 O         1.565538         1.622498         0.617485
 C         2.984753         1.620972         0.719053
 C         3.448788         0.357523        -0.031879
 O         2.295424        -0.045528        -0.670981
 H         4.052094         0.823799         3.296921
 H         4.604981        -0.849867         2.924658
 H         5.409744         0.569869         2.178977
 H         2.084138        -1.417571         1.512260
 H         1.507347        -0.234635         2.670494
 H        -0.497937        -0.313917        -0.806739
 H        -0.704231        -0.155374         0.968341
 H        -0.459177         1.267532         0.003361
 H         3.536857         2.577653         0.750521
 H         4.266423         0.420684        -0.696995
