19
Iteration:  4477charge 0 multiplicity 1
 C         4.363733         0.705328         2.617718
 C         3.229507         0.627559         1.652121
 C         1.694048         0.604165         1.866385
 C         1.265149         0.351878         0.415665
 C        -0.217007         0.043229         0.143932
 O         1.978100         1.639855        -0.123395
 C         3.327749         1.251180         0.249788
 C         3.349588        -0.223092         0.214320
 O         2.143220        -0.648517        -0.156328
 H         4.594315         1.760931         2.728465
 H         4.321776         0.239647         3.594882
 H         5.236178         0.274287         2.114894
 H         1.472941        -0.340085         2.509599
 H         0.992302         1.425014         2.281672
 H        -0.321132        -0.392860        -0.935208
 H        -0.545855        -0.805334         0.812494
 H        -1.126994         0.684049         0.322398
 H         4.067537         1.859868        -0.316129
 H         4.139235        -0.905191         0.008471
