19
Iteration:  4909
 C         4.338684         0.827120         2.575012
 C         3.244914         0.604505         1.614398
 C         1.769663         0.575489         1.866998
 C         1.316503         0.360609         0.334147
 C        -0.156584         0.142514         0.187255
 O         1.988732         1.528628        -0.170450
 C         3.296782         1.236876         0.254090
 C         3.306752        -0.276298         0.313767
 O         2.030380        -0.686096        -0.139925
 H         4.087502         1.739355         3.119661
 H         4.358207        -0.005771         3.278572
 H         5.319329         0.998293         2.140207
 H         1.413124        -0.348673         2.513900
 H         1.095684         1.395988         2.327085
 H        -0.280639         0.090457        -0.913886
 H        -0.249565        -0.919180         0.484095
 H        -0.740252         0.888586         0.731951
 H         4.114777         1.981225        -0.029112
 H         4.095885        -0.975439         0.125578
