19
Iteration:   877
 C         4.397934         0.256795         2.506900
 C         3.249870         0.261680         1.481029
 C         1.921607        -0.464526         1.612999
 C         1.372853         0.266963         0.467554
 C        -0.181225         0.206145         0.158388
 O         1.598838         1.701318         0.538008
 C         2.991702         1.631811         0.716916
 C         3.514669         0.492437        -0.015632
 O         2.284911        -0.082438        -0.656473
 H         4.278473         0.702658         3.549483
 H         4.449580        -0.769086         2.792057
 H         5.301970         0.581820         2.087902
 H         1.983422        -1.560739         1.656939
 H         1.349274        -0.031071         2.468706
 H        -0.451504        -0.716415        -0.435523
 H        -0.772141         0.136126         1.077505
 H        -0.427874         1.077294        -0.446420
 H         3.357759         2.583975         1.055454
 H         4.498055         0.282349        -0.482419
