19
Iteration:  4182
 C         4.407162         0.766014         2.611098
 C         3.221093         0.586137         1.613491
 C         1.718986         0.582413         1.857335
 C         1.265651         0.451517         0.373741
 C        -0.170193         0.208434         0.100594
 O         1.917287         1.515165        -0.264750
 C         3.193789         1.307257         0.264894
 C         3.433491        -0.252366         0.334217
 O         2.126563        -0.809722        -0.022082
 H         4.282829         1.313006         3.619092
 H         4.648977        -0.275220         3.013229
 H         5.339768         1.060386         2.022254
 H         1.305356        -0.329458         2.290387
 H         1.252422         1.532576         2.226968
 H        -0.527811         0.002854        -0.942704
 H        -0.389567        -0.736160         0.627971
 H        -0.813564         1.046358         0.469211
 H         3.890601         2.007459        -0.209508
 H         4.389265        -0.729012         0.171790
