19
Iteration:  3567
 C         4.262475         0.886469         2.514928
 C         3.183109         0.513208         1.656222
 C         1.678141         0.482532         1.911514
 C         1.305686         0.363152         0.395155
 C        -0.168865         0.308891         0.108079
 O         2.001845         1.480967        -0.283215
 C         3.291284         1.226203         0.291576
 C         3.411177        -0.260008         0.333213
 O         2.138996        -0.744622        -0.037438
 H         4.449040         1.956590         2.643321
 H         4.372725         0.352953         3.499803
 H         5.201964         0.564927         2.023347
 H         1.423332        -0.403367         2.475811
 H         1.270450         1.454609         2.221696
 H        -0.320975         0.355437        -0.995703
 H        -0.654072        -0.647750         0.598986
 H        -0.772858         1.121652         0.664179
 H         3.910605         2.050935         0.039570
 H         4.233177        -0.867011        -0.004620
