19
Iteration:   917charge 0 multiplicity 1
 C         4.468945         0.172243         2.544697
 C         3.363756         0.338726         1.461144
 C         1.941568        -0.320358         1.679392
 C         1.235886         0.343020         0.461836
 C        -0.108221         0.056375        -0.039096
 O         1.617948         1.779553         0.631209
 C         3.026057         1.646234         0.715282
 C         3.433958         0.436155        -0.068748
 O         2.165271        -0.166485        -0.578570
 H         4.098211         0.651296         3.508763
 H         4.674808        -0.889946         2.824083
 H         5.460855         0.609009         2.221997
 H         1.731697        -1.379391         1.721893
 H         1.571813         0.103780         2.660086
 H        -0.070449         0.121251        -1.132606
 H        -0.622561        -0.896628         0.263330
 H        -0.721980         0.910661         0.293689
 H         3.602980         2.519087         1.130866
 H         4.310826         0.378744        -0.815221
