19
Iteration:  1600
 C         4.410540         0.330671         2.618877
 C         3.293757         0.547563         1.577925
 C         1.889483         0.182188         1.893732
 C         1.254431         0.398459         0.386580
 C        -0.205092         0.131071         0.018533
 O         1.728083         1.641287         0.095770
 C         3.138789         1.537726         0.438788
 C         3.447351         0.132854         0.089962
 O         2.204828        -0.526299        -0.283394
 H         4.514227         1.066606         3.494398
 H         4.208079        -0.591344         3.157829
 H         5.341079         0.337443         2.187905
 H         1.720511        -0.877101         1.933786
 H         1.319777         0.739887         2.628407
 H        -0.500273         0.293981        -1.048408
 H        -0.469822        -0.847534         0.315307
 H        -0.806347         0.876388         0.522102
 H         3.617736         2.467901         0.347776
 H         4.296292        -0.440439        -0.264474
