19
Iteration:  3546charge 0 multiplicity 1
 C         4.434912         0.840554         2.595838
 C         3.144671         0.514585         1.668915
 C         1.654894         0.560328         1.827026
 C         1.326300         0.472193         0.298738
 C        -0.126945         0.179084         0.149724
 O         1.957952         1.536291        -0.329076
 C         3.319963         1.279062         0.259026
 C         3.313988        -0.291354         0.426533
 O         2.096450        -0.765508        -0.045973
 H         4.414036         1.857987         3.049340
 H         4.278378         0.071223         3.394899
 H         5.434372         0.638958         2.172475
 H         1.105377        -0.320409         2.162562
 H         1.249389         1.486748         2.271998
 H        -0.682249         0.208301        -0.800956
 H        -0.153582        -0.884470         0.565107
 H        -0.671652         0.813161         0.940254
 H         4.044882         1.943636        -0.131985
 H         4.217991        -0.828029         0.226076
