19
Iteration:  1947charge 0 multiplicity 1
 C         4.343504         0.561694         2.615473
 C         3.219777         0.584135         1.534071
 C         1.747010         0.347874         1.887172
 C         1.334443         0.328628         0.452165
 C        -0.115551         0.217603         0.099943
 O         1.797015         1.622911        -0.016247
 C         3.216575         1.394964         0.239698
 C         3.408182        -0.116138         0.208031
 O         2.187816        -0.624520        -0.186439
 H         4.512203         1.573908         3.087356
 H         3.926004        -0.055253         3.521465
 H         5.358475         0.123113         2.293438
 H         1.668288        -0.656699         2.331396
 H         1.223610         1.167349         2.404513
 H        -0.539477         1.198116         0.330648
 H        -0.370493         0.022458        -0.945678
 H        -0.651619        -0.626562         0.619782
 H         3.899462         2.123640        -0.082427
 H         4.288180        -0.687344        -0.191629
