19
Iteration:  4784charge 0 multiplicity 1
 C         4.361120         0.649808         2.636939
 C         3.210175         0.666550         1.590776
 C         1.702085         0.601154         1.864703
 C         1.306755         0.373642         0.395425
 C        -0.197422         0.183477         0.134752
 O         1.833487         1.503704        -0.225435
 C         3.306657         1.373706         0.159238
 C         3.428599        -0.207762         0.362614
 O         2.149753        -0.763938        -0.085578
 H         4.137151         1.202422         3.588163
 H         4.420390        -0.425131         2.948819
 H         5.373930         0.940876         2.244851
 H         1.710987        -0.179453         2.639211
 H         1.346621         1.473964         2.384696
 H        -0.136694         0.168457        -0.916144
 H        -0.497848        -0.864832         0.483020
 H        -0.868671         0.889029         0.632930
 H         4.056339         2.109706        -0.353539
 H         4.226297        -0.861849         0.150678
