19
Iteration:  3797
 C         4.345045         0.725574         2.673743
 C         3.258372         0.598812         1.589708
 C         1.758386         0.564409         1.914818
 C         1.258381         0.377507         0.463282
 C        -0.208129         0.185040         0.054342
 O         1.836603         1.451885        -0.315758
 C         3.288842         1.329282         0.191487
 C         3.429156        -0.204558         0.342083
 O         2.171336        -0.698798        -0.031079
 H         4.179448         1.385513         3.549829
 H         4.372762        -0.303407         3.119347
 H         5.365462         0.941694         2.331392
 H         1.495236        -0.261043         2.619060
 H         1.483077         1.482521         2.427009
 H        -0.175211        -0.096001        -1.091770
 H        -0.737073        -0.546004         0.684821
 H        -0.857037         1.142346         0.110949
 H         3.933968         2.086457        -0.297106
 H         4.171830        -0.821629        -0.095248
