19
Iteration:  4020charge 0 multiplicity 1
 C         4.340946         0.707839         2.659802
 C         3.263044         0.705056         1.553110
 C         1.761064         0.560530         1.895019
 C         1.311918         0.309275         0.448681
 C        -0.147023         0.191406         0.019779
 O         1.920051         1.557726        -0.139367
 C         3.225583         1.312942         0.102542
 C         3.363729        -0.215152         0.333831
 O         2.081306        -0.783751        -0.028401
 H         3.921197         1.345166         3.415152
 H         4.444323        -0.295775         3.082949
 H         5.353872         1.024391         2.385508
 H         1.598254        -0.331100         2.456232
 H         1.243654         1.419354         2.298660
 H        -0.177421        -0.199423        -0.992685
 H        -0.724474        -0.477505         0.735066
 H        -0.439836         1.260320        -0.031329
 H         4.031256         1.893512        -0.345784
 H         4.214701        -0.910373         0.094303
