19
Iteration:   602
 C         4.504285        -0.015933         2.470167
 C         3.410885         0.194157         1.489289
 C         2.050033        -0.408886         1.674216
 C         1.302661         0.313448         0.502951
 C        -0.072728         0.016629        -0.084229
 O         1.507901         1.767656         0.739061
 C         2.886176         1.708212         0.834111
 C         3.405931         0.577612        -0.134078
 O         2.169596         0.083739        -0.633496
 H         4.189311         0.086056         3.597978
 H         4.854825        -1.006773         2.426632
 H         5.295423         0.667003         2.251987
 H         1.841715        -1.469845         1.477245
 H         1.526602        -0.088189         2.595313
 H        -0.818847        -0.533874         0.456742
 H        -0.533090         0.982403        -0.147467
 H         0.194187        -0.414835        -1.049839
 H         3.302054         2.718074         1.022077
 H         4.369173         0.826576        -0.769123
