19
Iteration:  3622charge 0 multiplicity 1
 C         4.273037         0.765882         2.601403
 C         3.337989         0.566794         1.493600
 C         1.797608         0.525428         1.979846
 C         1.245578         0.436598         0.487939
 C        -0.108753         0.223103        -0.062554
 O         1.923609         1.504584        -0.238572
 C         3.283119         1.245063         0.224853
 C         3.363802        -0.220338         0.234381
 O         2.046065        -0.741477         0.104315
 H         3.832561         1.629646         3.109232
 H         4.305690        -0.067701         3.318577
 H         5.298864         1.080579         2.407032
 H         1.680824        -0.381962         2.566740
 H         1.492995         1.386693         2.594309
 H        -0.157862        -0.342931        -1.038865
 H        -0.633999        -0.514377         0.621207
 H        -0.694914         1.222693        -0.144777
 H         3.740871         2.115847        -0.168363
 H         4.232115        -0.877461        -0.063879
