19
Iteration:  2963charge 0 multiplicity 1
 C         4.362176         0.839821         2.698311
 C         3.319530         0.662651         1.576142
 C         1.727568         0.464275         1.878321
 C         1.333795         0.336965         0.427815
 C        -0.268401         0.396247        -0.015032
 O         1.892859         1.480076        -0.235303
 C         3.240445         1.250215         0.151728
 C         3.389062        -0.244767         0.288358
 O         2.138138        -0.882308         0.055712
 H         4.136319         1.541904         3.478049
 H         4.515906        -0.202402         3.082354
 H         5.320992         1.150669         2.243704
 H         1.347209        -0.451180         2.316492
 H         1.257260         1.239048         2.457666
 H        -0.829565         0.083872         0.834952
 H        -0.404634         1.473533        -0.175942
 H        -0.593773        -0.148843        -0.855402
 H         4.082810         1.985153        -0.125017
 H         4.342266        -0.737099         0.113728
