19
Iteration:  1593
 C         4.407016         0.334001         2.597893
 C         3.275280         0.569484         1.613001
 C         1.808377         0.196834         1.853414
 C         1.316569         0.376676         0.384599
 C        -0.236084         0.090086         0.044572
 O         1.801324         1.712279         0.100610
 C         3.097786         1.511115         0.506552
 C         3.404172         0.055266         0.051867
 O         2.217465        -0.499045        -0.305955
 H         4.484940         1.119972         3.357524
 H         4.315646        -0.536903         3.300321
 H         5.445323         0.362425         2.050574
 H         1.869117        -0.923806         2.038656
 H         1.314266         0.710999         2.703549
 H        -0.265842         0.022804        -1.024997
 H        -0.533987        -0.867845         0.497422
 H        -0.847549         0.961408         0.423427
 H         3.656371         2.426801         0.327218
 H         4.300411        -0.295403        -0.445477
