19
Iteration:  1077charge 0 multiplicity 1
 C         4.475237         0.285682         2.489001
 C         3.278734         0.385508         1.556312
 C         1.846044        -0.244828         1.728246
 C         1.309558         0.314717         0.364296
 C        -0.225126         0.142798         0.043210
 O         1.603198         1.769594         0.485354
 C         3.052968         1.599841         0.695287
 C         3.475824         0.309528         0.052305
 O         2.291669        -0.243211        -0.562905
 H         4.428996         0.935906         3.457832
 H         4.652344        -0.817521         2.716945
 H         5.490767         0.514630         1.993693
 H         1.880988        -1.370111         1.667542
 H         1.304755         0.144584         2.592722
 H        -0.488691        -0.902668         0.141040
 H        -0.761408         0.661103         0.857840
 H        -0.462216         0.568014        -0.935137
 H         3.679430         2.477250         0.654432
 H         4.311043        -0.147396        -0.478660
