19
Iteration:   300
 C         4.523865        -0.138643         2.246392
 C         3.375215         0.273306         1.429978
 C         2.070449        -0.543362         1.629405
 C         1.294712         0.316872         0.502415
 C        -0.094113        -0.032211        -0.192764
 O         1.475344         1.596584         0.966149
 C         2.888743         1.666606         1.032198
 C         3.358486         0.819652        -0.022193
 O         2.212135         0.351384        -0.696181
 H         4.246056        -0.346345         3.264354
 H         5.051631        -1.108027         1.879679
 H         5.266224         0.660981         2.306339
 H         2.245573        -1.489060         1.175293
 H         1.636255        -0.364729         2.653583
 H        -0.064384         0.511397        -1.145140
 H        -0.118718        -1.100669        -0.420257
 H        -0.983162         0.146646         0.430765
 H         3.340850         2.652442         1.312654
 H         4.275356         0.945338        -0.692046
