19
Iteration:  1876
 C         4.346590         0.632431         2.566412
 C         3.280638         0.498246         1.542323
 C         1.754476         0.340962         1.908571
 C         1.309604         0.439543         0.368760
 C        -0.107179         0.094238         0.108962
 O         1.877934         1.738051         0.047465
 C         3.273608         1.326835         0.391613
 C         3.377156        -0.135826         0.180112
 O         2.068452        -0.624597        -0.254450
 H         3.863284         1.069624         3.528164
 H         4.579014        -0.353969         2.982271
 H         5.218626         1.133448         2.091021
 H         1.429702        -0.661493         2.315951
 H         1.292210         1.211058         2.427453
 H        -0.311098         0.230288        -0.985369
 H        -0.426583        -1.029153         0.261036
 H        -0.746500         0.834361         0.621375
 H         3.984472         2.142158         0.213333
 H         4.077081        -0.762341        -0.377993
