19
Iteration:  4811
 C         4.361103         0.766321         2.558218
 C         3.159314         0.505512         1.645767
 C         1.720936         0.563343         1.833839
 C         1.267681         0.404577         0.385701
 C        -0.134582         0.061475         0.155352
 O         2.039368         1.662347        -0.231213
 C         3.272612         1.282867         0.282212
 C         3.328686        -0.223860         0.285686
 O         2.038766        -0.702994        -0.102809
 H         4.297595         1.677988         3.127124
 H         4.399010        -0.034204         3.284289
 H         5.285948         0.758932         2.017767
 H         1.513360        -0.207067         2.619625
 H         1.449818         1.483241         2.420895
 H        -0.179819        -0.522397        -0.805784
 H        -0.168978        -0.740532         0.846221
 H        -0.961607         0.765986         0.364158
 H         4.083611         1.937741         0.334016
 H         4.237969        -0.811518        -0.068111
