19
Iteration:  4567charge 0 multiplicity 1
 C         4.322256         0.826763         2.586772
 C         3.242141         0.500613         1.604677
 C         1.767865         0.473191         1.919935
 C         1.307225         0.390083         0.421769
 C        -0.149575         0.254723         0.062385
 O         1.919359         1.522079        -0.153834
 C         3.248443         1.254675         0.190882
 C         3.375593        -0.196446         0.232619
 O         2.093662        -0.731699        -0.015899
 H         3.961926         1.269899         3.517780
 H         4.816427        -0.115634         2.810859
 H         5.083419         1.511522         2.216582
 H         1.359341        -0.456539         2.453829
 H         1.372384         1.446824         2.310104
 H        -0.257495         0.396654        -0.976720
 H        -0.429584        -0.850947         0.324255
 H        -0.773714         0.870169         0.746866
 H         3.995577         1.973801        -0.040881
 H         4.215410        -0.763804        -0.308184
