19
Iteration:   116
 C         4.550651        -0.064481         2.153715
 C         3.268175         0.175413         1.482131
 C         2.039139        -0.701598         1.333700
 C         1.360027         0.287656         0.337124
 C         0.000759         0.068495        -0.019473
 O         1.474439         1.558667         1.017511
 C         2.804541         1.672249         1.273738
 C         3.339342         0.863092         0.057722
 O         2.260371         0.394897        -0.785158
 H         4.395165        -0.244806         3.266236
 H         5.265390        -0.846151         1.685604
 H         5.100304         0.956358         2.107648
 H         2.366841        -1.630758         0.835149
 H         1.358081        -0.878823         2.284162
 H        -0.464782         1.083804        -0.248764
 H        -0.146694        -0.647258        -0.824498
 H        -0.515617        -0.343830         0.884440
 H         3.174889         2.542329         1.792450
 H         4.262889         1.159864        -0.339429
