19
Iteration:  1327
 C         4.380006         0.303963         2.608119
 C         3.329758         0.474013         1.524017
 C         1.936173        -0.021852         1.880516
 C         1.305073         0.304172         0.419866
 C        -0.160026         0.155368         0.044952
 O         1.701286         1.759070         0.300583
 C         3.061248         1.554542         0.547175
 C         3.410633         0.166884         0.024918
 O         2.193559        -0.365499        -0.513067
 H         4.003168         0.640584         3.650491
 H         4.546698        -0.761389         2.693106
 H         5.312487         0.786658         2.637865
 H         1.856983        -1.122107         2.071587
 H         1.439430         0.561712         2.709113
 H        -0.088253        -0.596836        -0.759740
 H        -0.761146        -0.349933         0.869212
 H        -0.635351         1.100686        -0.168381
 H         3.622485         2.470796         0.361166
 H         4.148542        -0.272277        -0.695044
