19
Iteration:  1334charge 0 multiplicity 1
 C         4.399395         0.332780         2.637851
 C         3.328522         0.446786         1.514282
 C         1.918747        -0.033414         1.842780
 C         1.305391         0.297200         0.445573
 C        -0.168721         0.123416         0.061219
 O         1.739123         1.713938         0.264784
 C         3.086986         1.587917         0.585818
 C         3.430496         0.109855         0.053750
 O         2.107368        -0.308507        -0.527871
 H         3.828082         0.730898         3.510870
 H         4.688486        -0.756632         2.774355
 H         5.375121         0.894078         2.411321
 H         1.804298        -1.091142         2.108790
 H         1.590279         0.642052         2.621487
 H        -0.263439        -0.339209        -0.932110
 H        -0.677691        -0.501822         0.808723
 H        -0.772385         1.028075        -0.204737
 H         3.804515         2.439876         0.469532
 H         4.383069         0.087975        -0.488418
