19
Iteration:  1922charge 0 multiplicity 1
 C         4.360335         0.451031         2.633136
 C         3.244912         0.610760         1.584457
 C         1.815820         0.389259         1.897016
 C         1.301581         0.303917         0.430192
 C        -0.183328         0.265230         0.046159
 O         1.775567         1.569894        -0.102040
 C         3.139399         1.483374         0.335400
 C         3.437632        -0.013902         0.160989
 O         2.224103        -0.710142        -0.142135
 H         4.568032         1.304666         3.252645
 H         4.180187        -0.277226         3.426242
 H         5.323072         0.152019         2.065665
 H         1.760962        -0.591951         2.436458
 H         1.325684         1.206089         2.485343
 H        -0.599812         1.210915        -0.331887
 H        -0.479698        -0.409761        -0.712374
 H        -0.717074         0.009703         0.938890
 H         3.847774         2.306219         0.038796
 H         4.317848        -0.563834        -0.177634
