19
Iteration:  4873
 C         4.368351         0.829507         2.629853
 C         3.309236         0.593586         1.527276
 C         1.762165         0.374084         1.876357
 C         1.280797         0.315625         0.445268
 C        -0.169769         0.449431         0.033620
 O         1.832739         1.377409        -0.181729
 C         3.143784         1.315221         0.208820
 C         3.401752        -0.126953         0.251535
 O         2.193624        -0.817325         0.044213
 H         4.377167         1.905311         2.969465
 H         4.114693         0.210368         3.535345
 H         5.402297         0.489444         2.387819
 H         1.823892        -0.652344         2.241948
 H         1.295813         1.151571         2.524376
 H        -0.310472         0.363567        -1.094975
 H        -0.871145        -0.141304         0.538655
 H        -0.513685         1.497316         0.156217
 H         3.808275         2.049436        -0.082794
 H         4.215195        -0.877901        -0.081123
