19
Iteration:  4157charge 0 multiplicity 1
 C         4.294766         0.715915         2.660909
 C         3.298553         0.620916         1.547419
 C         1.864729         0.686039         1.960662
 C         1.230954         0.322532         0.530286
 C        -0.121878         0.014830        -0.011603
 O         1.945624         1.561620        -0.161949
 C         3.280002         1.215326         0.044738
 C         3.316617        -0.199943         0.281484
 O         2.020613        -0.617272        -0.002364
 H         3.988680         1.431037         3.490247
 H         4.356413        -0.257267         3.271431
 H         5.337256         0.923333         2.344889
 H         1.622695        -0.212079         2.641614
 H         1.452024         1.710253         2.293007
 H        -0.171657         0.223685        -1.055598
 H        -0.428939        -1.102845         0.101647
 H        -0.869315         0.714466         0.356002
 H         4.083124         1.833015        -0.307602
 H         4.122662        -0.900508        -0.105892
