19
Iteration:  2358charge 0 multiplicity 1
 C         4.318117         0.704831         2.604087
 C         3.215054         0.635932         1.573162
 C         1.849761         0.574841         1.874510
 C         1.229105         0.430773         0.460694
 C        -0.269814         0.330170         0.089003
 O         1.971779         1.433572        -0.288404
 C         3.244758         1.244534         0.178750
 C         3.444632        -0.213519         0.372638
 O         2.129209        -0.793652        -0.012017
 H         4.085093         1.624564         3.239966
 H         4.411453        -0.138563         3.294193
 H         5.344967         0.945333         2.205802
 H         1.435118        -0.277121         2.417141
 H         1.518259         1.509094         2.353984
 H        -0.834044        -0.323122         0.768149
 H        -0.846301         1.234102        -0.151796
 H        -0.164280        -0.376800        -0.762813
 H         3.782415         2.117712        -0.111142
 H         4.195791        -1.075351         0.281041
