19
Iteration:  1281
 C         4.470171         0.187920         2.529257
 C         3.204235         0.470555         1.585061
 C         1.891923         0.011455         1.895207
 C         1.333955         0.343773         0.412919
 C        -0.147645         0.060196         0.038183
 O         1.625704         1.744131         0.206032
 C         3.085097         1.571088         0.654249
 C         3.407531         0.194135         0.038882
 O         2.237607        -0.288355        -0.496112
 H         4.603730         0.741887         3.550783
 H         4.644931        -0.913482         2.669276
 H         5.396525         0.625289         2.117103
 H         1.878252        -1.092800         2.099250
 H         1.306404         0.591344         2.624782
 H        -0.582729        -0.893167         0.394985
 H        -0.722584         0.919552         0.498173
 H        -0.373012         0.279119        -1.045965
 H         3.622503         2.528417         0.689005
 H         4.381260        -0.148276        -0.237921
