19
Iteration:  4799charge 0 multiplicity 1
 C         4.377284         0.673897         2.621095
 C         3.237365         0.611866         1.607749
 C         1.723799         0.579747         1.907540
 C         1.279124         0.363582         0.398594
 C        -0.182674         0.029741         0.131077
 O         1.991412         1.581840        -0.261228
 C         3.250352         1.264623         0.249785
 C         3.345869        -0.192203         0.338629
 O         2.102666        -0.616310        -0.095749
 H         4.222142         1.491032         3.295273
 H         4.589946        -0.234554         3.152639
 H         5.251159         0.907123         2.052247
 H         1.180763        -0.277930         2.354671
 H         1.310900         1.610821         2.069193
 H        -0.555268        -0.149154        -0.921134
 H        -0.424770        -0.749405         0.786110
 H        -0.712988         0.898726         0.548385
 H         3.970209         1.880799        -0.163387
 H         4.211961        -0.822001         0.047279
