19
Iteration:  3429charge 0 multiplicity 1
 C         4.326729         0.906812         2.566586
 C         3.277192         0.429123         1.659194
 C         1.707506         0.490858         1.847360
 C         1.269433         0.396444         0.377748
 C        -0.216252         0.271140         0.037414
 O         2.005666         1.592808        -0.217336
 C         3.300120         1.246194         0.271773
 C         3.398014        -0.309681         0.362202
 O         2.086047        -0.810021        -0.029440
 H         4.134538         2.023879         2.612839
 H         4.435724         0.300837         3.464567
 H         5.268031         0.983861         1.992311
 H         1.167421        -0.322609         2.430648
 H         1.334200         1.469965         2.238598
 H        -0.623269        -0.401051        -0.690278
 H        -0.408966        -0.229830         0.909926
 H        -0.737905         1.257254         0.097052
 H         3.923954         2.060458        -0.020603
 H         4.211027        -0.873844         0.012170
