19
Iteration:   701
 C         4.399568         0.114748         2.497004
 C         3.386099         0.328227         1.431241
 C         2.009556        -0.482322         1.580641
 C         1.328702         0.288180         0.436649
 C        -0.046896         0.163351         0.001262
 O         1.578457         1.696220         0.765676
 C         2.917627         1.678281         0.832785
 C         3.422442         0.470713        -0.060424
 O         2.148986         0.019435        -0.665157
 H         4.015468         0.661422         3.487206
 H         4.567980        -0.952729         2.617350
 H         5.374456         0.503499         2.285941
 H         2.198140        -1.541826         1.568251
 H         1.545188        -0.158148         2.560602
 H        -0.007701         0.118888        -1.084820
 H        -0.411123        -0.802314         0.395020
 H        -0.706631         0.983020         0.310727
 H         3.390781         2.643557         0.832186
 H         4.297851         0.369366        -0.634368
