19
Iteration:  3843charge 0 multiplicity 1
 C         4.262989         0.626856         2.647470
 C         3.341297         0.721645         1.486649
 C         1.837711         0.640512         1.888492
 C         1.235408         0.343145         0.451627
 C        -0.201975         0.059654         0.015855
 O         1.907473         1.623608        -0.183537
 C         3.228501         1.342040         0.138188
 C         3.433615        -0.316879         0.379054
 O         2.098433        -0.719211         0.003719
 H         3.950612         1.276376         3.497427
 H         4.381482        -0.339032         3.122412
 H         5.253887         1.059217         2.503625
 H         1.500395        -0.160293         2.556397
 H         1.472651         1.535549         2.398034
 H        -0.110000        -0.333345        -1.112521
 H        -0.789092        -0.649758         0.753198
 H        -0.791991         1.024331        -0.014237
 H         3.922411         1.942980        -0.406681
 H         4.385078        -0.851609         0.056372
