19
Iteration:  4868charge 0 multiplicity 1
 C         4.402988         0.832154         2.655364
 C         3.307788         0.632180         1.564162
 C         1.775914         0.388072         1.874757
 C         1.235474         0.277400         0.503636
 C        -0.146240         0.439054        -0.019673
 O         1.840577         1.389530        -0.202504
 C         3.147134         1.373901         0.259428
 C         3.356528        -0.199844         0.185846
 O         2.177656        -0.837615         0.014742
 H         4.388682         1.871710         2.960938
 H         4.092257         0.278239         3.540837
 H         5.443750         0.506876         2.508171
 H         1.882616        -0.636838         2.268424
 H         1.447708         1.112332         2.600931
 H        -0.379938         0.371856        -1.052120
 H        -0.886814        -0.162778         0.669599
 H        -0.392307         1.503611         0.073957
 H         3.868005         2.111410        -0.251153
 H         4.206465        -0.740922        -0.032291
