19
Iteration:  3520charge 0 multiplicity 1
 C         4.295534         0.719382         2.646281
 C         3.196316         0.724149         1.549973
 C         1.802077         0.701842         1.921035
 C         1.270031         0.282224         0.573634
 C        -0.195475         0.127072         0.015176
 O         1.979246         1.522119        -0.226734
 C         3.328597         1.222057         0.099831
 C         3.374742        -0.252518         0.296933
 O         2.064488        -0.720902        -0.018582
 H         4.166391         1.544939         3.331311
 H         4.085276        -0.195541         3.175129
 H         5.354399         0.769532         2.395617
 H         1.517349        -0.161079         2.515689
 H         1.407229         1.657681         2.244228
 H        -0.173901         0.411141        -1.058416
 H        -0.586855        -0.946363         0.184081
 H        -0.874429         0.765934         0.560263
 H         4.152142         1.864262        -0.339271
 H         4.310550        -0.846101         0.246771
