19
Iteration:  3190charge 0 multiplicity 1
 C         4.307257         0.705179         2.714252
 C         3.271053         0.683322         1.491751
 C         1.771257         0.598473         1.891653
 C         1.277663         0.345353         0.436652
 C        -0.162763         0.171860        -0.000011
 O         1.905362         1.588081        -0.157642
 C         3.291306         1.351285         0.092792
 C         3.360567        -0.277982         0.235317
 O         2.079146        -0.823823         0.101665
 H         4.541128         1.629292         3.236438
 H         4.075561        -0.016769         3.499126
 H         5.292912         0.377878         2.340240
 H         1.451057        -0.270719         2.443538
 H         1.408303         1.532898         2.261885
 H        -0.282474        -0.785189        -0.509417
 H        -0.883602         0.296673         0.836141
 H        -0.157919         1.043609        -0.727622
 H         4.052411         1.891490        -0.367497
 H         4.270402        -0.883040         0.102416
