19
Iteration:  3488charge 0 multiplicity 1
 C         4.302473         0.708907         2.693371
 C         3.343142         0.654673         1.572778
 C         1.866035         0.654190         1.811216
 C         1.270627         0.396224         0.468352
 C        -0.102139         0.254802        -0.070952
 O         1.819374         1.486880        -0.274250
 C         3.187384         1.266368         0.134917
 C         3.358463        -0.221132         0.294849
 O         2.104425        -0.833000         0.199709
 H         4.019983         1.239666         3.593717
 H         4.282833        -0.303189         3.152376
 H         5.363654         0.833380         2.437822
 H         1.553237        -0.289130         2.228372
 H         1.554654         1.528070         2.377699
 H        -0.105546         0.181730        -1.205740
 H        -0.695312        -0.653002         0.488720
 H        -0.736803         1.057783         0.333747
 H         3.872684         2.021427        -0.383024
 H         4.315527        -0.675564        -0.115724
