19
Iteration:   725charge 0 multiplicity 1
 C         4.395034         0.214603         2.516989
 C         3.412952         0.185826         1.483569
 C         1.956371        -0.443351         1.623774
 C         1.288469         0.413476         0.443255
 C        -0.156976         0.032831        -0.012490
 O         1.609773         1.731488         0.739937
 C         3.040479         1.537448         0.840228
 C         3.423709         0.495045        -0.140473
 O         2.200293         0.076183        -0.657338
 H         4.017065         0.826542         3.427979
 H         4.778334        -0.830131         2.760757
 H         5.327946         0.682702         2.189534
 H         1.990970        -1.535392         1.559172
 H         1.333121        -0.118416         2.514899
 H        -0.443956         0.759534        -0.826953
 H        -0.297211        -1.017283        -0.397313
 H        -0.937366         0.249856         0.753762
 H         3.640457         2.442559         1.029123
 H         4.223473         0.397250        -0.813734
