19
Iteration:  4138charge 0 multiplicity 1
 C         4.224080         0.681923         2.607860
 C         3.323288         0.678872         1.482357
 C         1.783280         0.601973         1.943792
 C         1.308521         0.482507         0.498212
 C        -0.033505         0.150931         0.039260
 O         1.824467         1.594558        -0.136847
 C         3.259412         1.311387         0.097771
 C         3.351991        -0.302260         0.256502
 O         2.084087        -0.831287         0.038931
 H         3.978874         1.588199         3.271730
 H         3.970397        -0.084691         3.377195
 H         5.318030         0.702011         2.310987
 H         1.617048        -0.168101         2.708209
 H         1.634891         1.638619         2.337024
 H         0.018167         0.312853        -1.045294
 H        -0.000287        -0.981347         0.071633
 H        -0.959761         0.587191         0.455840
 H         3.952919         1.870940        -0.464163
 H         4.242878        -0.965626         0.002932
