19
Iteration:   308charge 0 multiplicity 1
 C         4.481869        -0.099055         2.179360
 C         3.305439         0.288774         1.429297
 C         2.086921        -0.539740         1.556472
 C         1.285801         0.305329         0.465185
 C        -0.085015        -0.060050        -0.127564
 O         1.525104         1.628237         0.937215
 C         2.930871         1.680535         1.105118
 C         3.364262         0.818721         0.000927
 O         2.223196         0.310577        -0.664350
 H         4.051715        -0.229188         3.235693
 H         4.940680        -1.042694         1.753297
 H         5.313400         0.562029         2.310952
 H         2.058184        -1.613397         1.343764
 H         1.653311        -0.455215         2.520015
 H        -0.222397         0.679516        -0.959190
 H         0.055570        -1.026139        -0.621125
 H        -0.996611        -0.077996         0.467434
 H         3.272135         2.665312         1.396260
 H         4.366809         0.806229        -0.529628
