19
Iteration:   448
 C         4.548359        -0.016807         2.246989
 C         3.235702         0.247092         1.558039
 C         1.903972        -0.494910         1.472658
 C         1.324397         0.343206         0.336642
 C        -0.109833         0.063078         0.064137
 O         1.465303         1.654487         0.827428
 C         2.945333         1.653447         0.975638
 C         3.439622         0.737111         0.039414
 O         2.364996         0.144297        -0.658699
 H         4.513881         0.039334         3.381981
 H         4.993696        -0.852415         1.873151
 H         5.335784         0.688271         2.000746
 H         1.778957        -1.635061         1.198408
 H         1.215771        -0.238130         2.267065
 H        -0.172392        -0.985799        -0.328114
 H        -0.711928         0.058556         0.974456
 H        -0.548597         0.632476        -0.758515
 H         3.419314         2.512439         1.506305
 H         4.350949         0.630655        -0.554569
