19
Iteration:  2391
 C         4.366815         0.669176         2.685429
 C         3.279646         0.710005         1.643894
 C         1.776209         0.712306         1.829152
 C         1.306870         0.435343         0.390627
 C        -0.042525         0.148599         0.078794
 O         1.966785         1.546089        -0.232659
 C         3.213945         1.195951         0.108716
 C         3.300197        -0.273877         0.331675
 O         1.985898        -0.782594         0.000817
 H         3.870951         1.371282         3.411022
 H         4.484178        -0.329590         3.140514
 H         5.286379         1.153039         2.279643
 H         1.430349        -0.030143         2.552192
 H         1.392913         1.689520         2.185540
 H        -0.167001        -0.846500         0.497593
 H        -0.819808         0.777867         0.596203
 H        -0.191837         0.092455        -1.021552
 H         3.995502         1.844133        -0.372933
 H         3.980651        -1.132281         0.185299
