19
Iteration:   487charge 0 multiplicity 1
 C         4.519675        -0.171397         2.350203
 C         3.369842         0.322501         1.522153
 C         2.034081        -0.461647         1.604547
 C         1.327884         0.338319         0.491986
 C        -0.068279         0.005292        -0.090605
 O         1.439339         1.692640         0.760009
 C         2.906318         1.725702         0.904239
 C         3.378542         0.705657        -0.042432
 O         2.225749         0.161217        -0.618144
 H         4.262085        -0.162311         3.398159
 H         4.740725        -1.288131         1.988959
 H         5.424445         0.521128         2.190164
 H         2.197460        -1.549342         1.492637
 H         1.568288         0.014418         2.517841
 H         0.126515        -0.057944        -1.168949
 H        -0.455121        -0.996930         0.221147
 H        -0.718078         0.836026         0.257386
 H         3.180387         2.728493         1.236537
 H         4.320174         0.738497        -0.701535
