19
Iteration:  1590
 C         4.415516         0.343495         2.587371
 C         3.262454         0.558910         1.631016
 C         1.774894         0.178898         1.838161
 C         1.323596         0.360596         0.398152
 C        -0.227690         0.079322         0.059310
 O         1.818436         1.744188         0.102404
 C         3.104734         1.520860         0.513719
 C         3.399489         0.031510         0.057682
 O         2.212447        -0.488281        -0.325335
 H         4.447772         1.261666         3.288588
 H         4.357500        -0.552925         3.200356
 H         5.337437         0.311673         2.081512
 H         1.863297        -0.865832         2.145895
 H         1.318196         0.705765         2.672883
 H        -0.173262        -0.109901        -1.010109
 H        -0.546687        -0.778828         0.552246
 H        -0.833959         0.918026         0.376788
 H         3.720310         2.338338         0.297898
 H         4.295907        -0.211455        -0.498023
