19
Iteration:   666
 C         4.542949        -0.015451         2.350178
 C         3.302102         0.323768         1.501479
 C         1.960150        -0.396297         1.638756
 C         1.289349         0.374683         0.399503
 C        -0.203080         0.086932         0.064884
 O         1.539215         1.716080         0.560929
 C         2.884801         1.704900         0.988073
 C         3.465702         0.573926         0.081912
 O         2.361512        -0.036167        -0.697731
 H         4.393389         0.095295         3.529102
 H         4.692388        -1.069519         2.279339
 H         5.459080         0.542191         2.040619
 H         1.868858        -1.525315         1.605669
 H         1.321938        -0.003250         2.449667
 H        -0.262125        -0.721745        -0.658715
 H        -0.778779        -0.235279         0.942673
 H        -0.783290         0.930176        -0.304232
 H         3.213802         2.744531         1.101562
 H         4.475370         0.547259        -0.522414
