19
Iteration:   806
 C         4.475009        -0.032700         2.397428
 C         3.365468         0.432971         1.486118
 C         1.959050        -0.197588         1.726262
 C         1.315913         0.332736         0.475501
 C        -0.090829         0.040801        -0.092475
 O         1.504830         1.786703         0.628712
 C         2.893279         1.657777         0.832422
 C         3.437256         0.468205         0.004329
 O         2.256260        -0.142671        -0.563031
 H         4.278790        -0.085199         3.419650
 H         4.684039        -1.088860         2.054062
 H         5.390673         0.631290         2.192921
 H         1.797255        -1.286734         1.876935
 H         1.613026         0.350435         2.584031
 H        -0.768501        -0.230644         0.723796
 H        -0.482873         0.862398        -0.737244
 H         0.194214        -0.848078        -0.701793
 H         3.595216         2.463354         0.912430
 H         4.166694         0.513230        -0.749559
