19
Iteration:    61
 C         4.533212        -0.163995         2.213223
 C         3.348381         0.232459         1.409048
 C         2.104189        -0.658273         1.341295
 C         1.352421         0.281304         0.395859
 C         0.000091        -0.065938        -0.079574
 O         1.430018         1.506759         1.148817
 C         2.830467         1.576926         1.243652
 C         3.319874         1.068874        -0.066324
 O         2.207507         0.526368        -0.762412
 H         4.372048        -0.241740         3.326165
 H         4.770061        -1.254011         1.904901
 H         5.433365         0.499485         2.064415
 H         2.282687        -1.685278         0.949700
 H         1.487136        -0.565510         2.301723
 H         0.126010        -0.716707        -0.979935
 H        -0.698673        -0.539694         0.622888
 H        -0.381451         0.937817        -0.377310
 H         3.216652         2.529470         1.694543
 H         4.231433         1.275088        -0.585206
