19
Iteration:  1050
 C         4.362045         0.366021         2.500660
 C         3.252358         0.215231         1.505151
 C         1.905245        -0.261715         1.730493
 C         1.334308         0.388248         0.422401
 C        -0.093613         0.097707         0.084854
 O         1.671118         1.724253         0.462193
 C         3.089839         1.524115         0.777050
 C         3.401212         0.314965         0.008714
 O         2.197730        -0.115942        -0.619154
 H         4.220942         1.085976         3.303073
 H         4.637848        -0.640897         2.708765
 H         5.294942         0.694455         2.119117
 H         1.709942        -1.342353         1.769869
 H         1.412709         0.335232         2.536956
 H        -0.445645        -0.638145         0.860939
 H        -0.730834         0.994963         0.134398
 H        -0.052892        -0.342116        -0.935502
 H         3.758261         2.368307         0.901945
 H         4.189088         0.019515        -0.670371
