19
Iteration:  3268charge 0 multiplicity 1
 C         4.273696         0.848242         2.661540
 C         3.274763         0.680867         1.517190
 C         1.802205         0.547183         1.928961
 C         1.226164         0.240291         0.442315
 C        -0.193927         0.365091        -0.032834
 O         1.910103         1.473779        -0.141595
 C         3.331692         1.218833         0.094594
 C         3.369052        -0.260503         0.318286
 O         2.116591        -0.831881         0.028106
 H         4.061752         1.686203         3.288540
 H         4.371791        -0.056207         3.265939
 H         5.298017         1.042552         2.328143
 H         1.701339        -0.308147         2.575036
 H         1.331215         1.342206         2.457286
 H        -0.253898         0.257293        -1.136914
 H        -0.761284        -0.416411         0.424091
 H        -0.552081         1.410920         0.251678
 H         4.004786         1.954740        -0.483429
 H         4.286108        -0.899660         0.251711
