19
Iteration:  2319
 C         4.312370         0.899426         2.561496
 C         3.216047         0.584221         1.590838
 C         1.770222         0.450885         1.880452
 C         1.306517         0.269892         0.448702
 C        -0.164414         0.375145         0.067510
 O         1.986381         1.591370        -0.137903
 C         3.268819         1.248925         0.202572
 C         3.351209        -0.332013         0.251868
 O         2.084868        -0.834003        -0.036724
 H         4.321737         1.955566         2.699628
 H         4.177945         0.338256         3.543464
 H         5.232851         0.597220         2.087675
 H         1.563915        -0.388986         2.620365
 H         1.083876         1.235121         2.289403
 H        -0.942514         0.363583         0.850457
 H        -0.413359         1.307758        -0.553696
 H        -0.295926        -0.580629        -0.457970
 H         4.114408         1.967744        -0.067346
 H         4.210145        -0.904807         0.306090
