19
Iteration:  4733charge 0 multiplicity 1
 C         4.365379         0.788742         2.666895
 C         3.259948         0.647772         1.589914
 C         1.847435         0.461259         1.910022
 C         1.312385         0.428185         0.437829
 C        -0.220277         0.223380         0.044517
 O         1.894357         1.503364        -0.169121
 C         3.183935         1.289855         0.176960
 C         3.383287        -0.246313         0.274445
 O         2.103698        -0.779487        -0.090032
 H         3.921754         1.512787         3.329458
 H         4.488482        -0.107740         3.254778
 H         5.316139         1.154337         2.357487
 H         1.630107        -0.473925         2.482506
 H         1.433338         1.405971         2.384916
 H        -0.152806         0.641615        -0.973603
 H        -0.529417        -0.774576         0.087014
 H        -0.869733         0.720621         0.766616
 H         3.906947         2.027520        -0.226353
 H         4.220250        -0.832866         0.039398
