19
Iteration:  2434charge 0 multiplicity 1
 C         4.354188         0.809396         2.637970
 C         3.190070         0.628816         1.561276
 C         1.749868         0.553347         1.838270
 C         1.296576         0.364902         0.414200
 C        -0.107571         0.354756         0.089010
 O         1.941128         1.437561        -0.295381
 C         3.269983         1.260502         0.171063
 C         3.375300        -0.249426         0.373047
 O         2.057861        -0.863080         0.060474
 H         4.308053         1.702585         3.313570
 H         4.405422        -0.096529         3.229690
 H         5.297600         0.851881         2.058721
 H         1.368686        -0.255616         2.443391
 H         1.312171         1.473207         2.219180
 H        -0.511943        -0.626212        -0.089917
 H        -0.742591         0.789307         0.927506
 H        -0.325075         0.911996        -0.827013
 H         3.984025         2.088894        -0.154971
 H         4.297685        -0.736434         0.184809
