19
Iteration:  1899charge 0 multiplicity 1
 C         4.387438         0.509127         2.606478
 C         3.268820         0.572557         1.583781
 C         1.755373         0.311113         1.908375
 C         1.275615         0.405003         0.493610
 C        -0.155577         0.158872         0.055289
 O         1.865831         1.634300        -0.063016
 C         3.185446         1.409262         0.267273
 C         3.439070        -0.058604         0.261980
 O         2.111809        -0.581181        -0.221719
 H         4.292102         1.236585         3.437875
 H         4.348825        -0.447266         3.181093
 H         5.361889         0.588135         2.041149
 H         1.456296        -0.685470         2.335534
 H         1.361180         1.164136         2.509153
 H        -0.565790         0.718833        -0.833388
 H        -0.210714        -0.907222        -0.303967
 H        -0.844134         0.275616         0.864808
 H         3.944241         2.172542        -0.100828
 H         4.258096        -0.665687        -0.131187
