19
Iteration:  3837
 C         4.205733         0.633922         2.668789
 C         3.382596         0.733729         1.423847
 C         1.848047         0.621816         1.889470
 C         1.245425         0.365012         0.462685
 C        -0.166993         0.030394        -0.005231
 O         1.877041         1.660703        -0.134610
 C         3.262748         1.395660         0.105949
 C         3.422759        -0.336605         0.378141
 O         2.069626        -0.753652         0.049235
 H         3.825933         1.197812         3.516588
 H         4.386278        -0.425236         2.989407
 H         5.249204         0.962473         2.445682
 H         1.650692        -0.181782         2.621629
 H         1.377767         1.592008         2.196377
 H        -0.091072        -0.355461        -0.923191
 H        -0.770670        -0.611591         0.552494
 H        -0.617238         0.990780        -0.022844
 H         4.080374         1.795755        -0.533050
 H         4.276524        -0.823657         0.009018
