19
Iteration:  1907charge 0 multiplicity 1
 C         4.419078         0.476888         2.621870
 C         3.293911         0.591989         1.574765
 C         1.735114         0.321478         1.932031
 C         1.276907         0.380914         0.432477
 C        -0.208675         0.172385         0.059882
 O         1.804599         1.574524        -0.098805
 C         3.231347         1.403055         0.288245
 C         3.447563        -0.045401         0.244478
 O         2.161155        -0.553834        -0.160721
 H         4.370161         1.447886         3.223818
 H         4.093941        -0.468301         2.942372
 H         5.404646         0.411567         2.252242
 H         1.438910        -0.663065         2.316982
 H         1.268655         1.154645         2.463888
 H        -0.202459         1.081921        -0.550984
 H        -0.320341        -0.886502        -0.448767
 H        -0.944019         0.215260         0.915567
 H         3.750823         2.308673         0.024286
 H         4.264898        -0.565362        -0.264802
