19
Iteration:   851charge 0 multiplicity 1
 C         4.487745         0.186605         2.465767
 C         3.267945         0.287452         1.515128
 C         1.896055        -0.282522         1.601394
 C         1.342237         0.422625         0.362201
 C        -0.150962        -0.005393         0.074031
 O         1.615462         1.786591         0.595239
 C         2.999807         1.592987         0.830882
 C         3.446280         0.326264         0.034083
 O         2.230731        -0.063484        -0.657727
 H         4.171433         0.498729         3.483287
 H         4.728223        -0.887484         2.685879
 H         5.418127         0.761221         2.158440
 H         2.054166        -1.350295         1.474824
 H         1.394113        -0.076371         2.562733
 H        -0.429164        -0.989896         0.417594
 H        -0.764162         0.725150         0.680124
 H        -0.433850         0.233439        -0.974809
 H         3.514162         2.539665         1.072584
 H         4.251552         0.647451        -0.593236
