19
Iteration:  4660
 C         4.375813         0.738327         2.664397
 C         3.346290         0.680771         1.583669
 C         1.746173         0.442669         1.927470
 C         1.316334         0.273770         0.489044
 C        -0.193391         0.250051         0.027060
 O         1.810318         1.506279        -0.103719
 C         3.199685         1.357672         0.129811
 C         3.369276        -0.141170         0.208623
 O         2.138230        -0.748210        -0.064793
 H         4.691026         1.740529         3.101715
 H         3.963124        -0.038467         3.411445
 H         5.284637         0.143755         2.314804
 H         1.757499        -0.522620         2.413547
 H         1.303833         1.243225         2.510316
 H         0.176893        -0.052659        -1.053464
 H        -0.908880        -0.392438         0.529689
 H        -0.447598         1.360029         0.064821
 H         3.878468         1.992765        -0.431303
 H         4.117185        -0.852858         0.042053
