19
Iteration:  2386charge 0 multiplicity 1
 C         4.363117         0.671686         2.658983
 C         3.216948         0.675723         1.592193
 C         1.775612         0.733894         1.879020
 C         1.339865         0.369187         0.343455
 C        -0.022400         0.175497         0.083473
 O         1.950882         1.563625        -0.219890
 C         3.247993         1.200768         0.149248
 C         3.290423        -0.271030         0.296394
 O         2.014602        -0.753224         0.045285
 H         3.893840         1.347480         3.368660
 H         4.482432        -0.277850         3.195336
 H         5.309204         1.132171         2.407304
 H         1.351390        -0.012101         2.573561
 H         1.251891         1.655591         2.153039
 H        -0.258924        -0.821585         0.542432
 H        -0.686755         0.885401         0.512662
 H        -0.234199        -0.125360        -0.962945
 H         3.913410         1.724084        -0.488200
 H         3.912844        -1.164747         0.023901
