19
Iteration:  2181
 C         4.295877         0.826457         2.612573
 C         3.242974         0.526537         1.600127
 C         1.769760         0.421528         1.938159
 C         1.328067         0.418621         0.479698
 C        -0.106289         0.188095         0.058627
 O         1.974458         1.605151        -0.167874
 C         3.298314         1.182906         0.183906
 C         3.307853        -0.290228         0.254997
 O         2.006701        -0.630075        -0.092104
 H         4.035774         1.743329         3.225841
 H         4.558195         0.045977         3.300895
 H         5.240812         1.116384         2.101014
 H         1.400349        -0.426163         2.479819
 H         1.467220         1.333424         2.380751
 H        -0.483338         0.920715        -0.617518
 H        -0.238395        -0.662156        -0.511188
 H        -0.632385         0.093187         0.975021
 H         4.146006         1.890413        -0.050292
 H         4.085811        -0.967939        -0.096785
