19
Iteration:   252
 C         4.463893        -0.016202         2.189914
 C         3.203206         0.221090         1.473211
 C         2.077476        -0.725273         1.441215
 C         1.318262         0.313282         0.407503
 C        -0.147425         0.058629         0.036243
 O         1.439476         1.595139         0.894164
 C         2.891219         1.625510         1.113367
 C         3.478737         0.784517         0.009992
 O         2.380987         0.394356        -0.696576
 H         4.468714        -0.043097         3.373888
 H         4.969215        -0.960056         1.879044
 H         5.085632         0.858979         1.874279
 H         2.296866        -1.649527         0.866499
 H         1.641996        -0.763194         2.371055
 H        -0.153661        -0.701756        -0.762140
 H        -0.749091        -0.304078         0.905493
 H        -0.578811         1.020295        -0.342670
 H         3.057203         2.493213         1.722608
 H         4.319521         1.097560        -0.522237
