19
Iteration:  4859
 C         4.388436         0.839563         2.689932
 C         3.285647         0.680286         1.585980
 C         1.865979         0.371525         1.975691
 C         1.257560         0.268193         0.478519
 C        -0.177683         0.393249        -0.038535
 O         1.843330         1.469442        -0.205488
 C         3.208666         1.376410         0.250931
 C         3.382104        -0.239913         0.191894
 O         2.078066        -0.867207        -0.062625
 H         4.503385         1.925480         2.950862
 H         4.045843         0.306487         3.601521
 H         5.411062         0.508488         2.332460
 H         1.616373        -0.498748         2.494983
 H         1.383115         1.100685         2.562991
 H        -0.176401        -0.021708        -1.017087
 H        -0.987816        -0.165086         0.614523
 H        -0.263017         1.452338         0.167327
 H         3.833715         2.095040        -0.327206
 H         4.278825        -0.647462        -0.139056
