19
Iteration:   818charge 0 multiplicity 1
 C         4.436316         0.022939         2.370312
 C         3.308137         0.335035         1.497263
 C         1.941254        -0.182041         1.814803
 C         1.276989         0.307942         0.476869
 C        -0.041397        -0.042327        -0.089838
 O         1.606872         1.746922         0.625331
 C         3.027064         1.693313         0.782893
 C         3.407267         0.443243        -0.037990
 O         2.182077        -0.035895        -0.578258
 H         4.039002         0.106309         3.371399
 H         4.779031        -1.003699         2.180735
 H         5.359183         0.637062         2.318558
 H         1.974455        -1.275434         1.904619
 H         1.410990         0.260233         2.660427
 H        -0.718081        -0.546056         0.579363
 H        -0.512644         0.918158        -0.355759
 H         0.013006        -0.645569        -1.028704
 H         3.382591         2.698651         0.985165
 H         4.293027         0.546888        -0.563204
