19
Iteration:  2010charge 0 multiplicity 1
 C         4.296320         0.725789         2.554776
 C         3.269989         0.543481         1.555401
 C         1.789675         0.325607         1.932993
 C         1.261692         0.318018         0.474413
 C        -0.218484         0.334605         0.035229
 O         1.896239         1.530785        -0.050317
 C         3.266522         1.366712         0.264732
 C         3.395109        -0.174134         0.275636
 O         2.147816        -0.684280        -0.202997
 H         4.024600         1.400143         3.279019
 H         4.485910        -0.195914         3.063271
 H         5.250821         1.063798         2.114352
 H         1.596392        -0.589736         2.529995
 H         1.349635         1.135079         2.552054
 H        -0.825795         0.068129         0.885100
 H        -0.364966         1.316117        -0.249159
 H        -0.400803        -0.421747        -0.706216
 H         4.063688         2.049400         0.139984
 H         4.304630        -0.677236        -0.110663
