19
Iteration:   586
 C         4.467787         0.039601         2.440009
 C         3.306858         0.308069         1.439204
 C         1.989388        -0.502751         1.646733
 C         1.306045         0.250358         0.429540
 C        -0.082941         0.139962         0.000212
 O         1.511062         1.640372         0.750790
 C         2.931114         1.699405         0.852347
 C         3.396326         0.621643        -0.040083
 O         2.269073         0.091492        -0.685758
 H         4.079248         0.379814         3.378930
 H         4.816337        -1.059860         2.350784
 H         5.450617         0.622855         2.262071
 H         2.263244        -1.589404         1.512359
 H         1.514489        -0.237649         2.601533
 H        -0.668270        -0.082938         0.950037
 H        -0.320126         1.143845        -0.471750
 H        -0.221857        -0.747559        -0.641752
 H         3.486549         2.608457         0.991094
 H         4.249424         0.588170        -0.613459
