19
Iteration:  1493
 C         4.330930         0.373929         2.558851
 C         3.253860         0.439750         1.594649
 C         1.829674         0.088094         1.868778
 C         1.285074         0.306849         0.443337
 C        -0.206720         0.188785         0.065135
 O         1.766977         1.730789         0.210035
 C         3.118705         1.522786         0.476557
 C         3.414199         0.158219         0.040152
 O         2.270597        -0.518566        -0.427381
 H         4.051995         0.874470         3.510582
 H         4.810751        -0.568162         2.795774
 H         5.231247         0.970113         2.262654
 H         1.843540        -0.969589         2.188072
 H         1.293341         0.676169         2.647010
 H        -0.617909        -0.402757         0.894158
 H        -0.506207         1.176827         0.070577
 H        -0.280973        -0.201029        -0.958015
 H         3.792533         2.404681         0.329137
 H         4.386944        -0.308239        -0.268331
