19
Iteration:  4973charge 0 multiplicity 1
 C         4.375230         0.679315         2.580898
 C         3.215292         0.779761         1.603488
 C         1.769062         0.590461         1.940636
 C         1.330565         0.321041         0.466475
 C        -0.198742         0.360214         0.053217
 O         1.822449         1.408817        -0.251731
 C         3.203329         1.274962         0.139123
 C         3.418641        -0.171477         0.298810
 O         2.225603        -0.847296         0.036389
 H         4.093713         1.219828         3.536742
 H         4.249865        -0.373199         2.958572
 H         5.435334         0.902814         2.373246
 H         1.586894        -0.391034         2.458671
 H         1.103108         1.366010         2.387186
 H        -0.157968         0.333911        -1.059683
 H        -0.785114        -0.517984         0.253703
 H        -0.811903         1.171305         0.463073
 H         3.812144         2.003009        -0.484289
 H         4.268376        -0.740281         0.133280
