19
Iteration:  4761
 C         4.256678         0.633416         2.617614
 C         3.259429         0.721153         1.571359
 C         1.817493         0.483019         1.927814
 C         1.352685         0.332620         0.454093
 C        -0.140970         0.272812         0.018393
 O         1.847484         1.458608        -0.224298
 C         3.145230         1.367686         0.114358
 C         3.416274        -0.141782         0.202462
 O         2.176287        -0.782791         0.135412
 H         3.809530         1.199189         3.497576
 H         4.360689        -0.424312         2.993664
 H         5.276989         1.091636         2.409918
 H         1.657057        -0.348417         2.620823
 H         1.439454         1.330839         2.464757
 H        -0.085993         0.726568        -0.950569
 H        -0.834545        -0.669814         0.063566
 H        -0.574689         0.962460         0.761059
 H         3.928581         1.950767        -0.482366
 H         4.280941        -0.688441        -0.261358
