19
Iteration:  1992charge 0 multiplicity 1
 C         4.315434         0.741798         2.596618
 C         3.297130         0.460459         1.608311
 C         1.734450         0.339878         1.870211
 C         1.289585         0.390890         0.387472
 C        -0.118499         0.216825         0.080895
 O         1.904144         1.681823         0.019297
 C         3.240705         1.267773         0.301709
 C         3.401054        -0.228237         0.145992
 O         2.074495        -0.629808        -0.180047
 H         4.106455         1.689753         3.264877
 H         4.554991         0.044029         3.530135
 H         5.287158         0.910469         2.060898
 H         1.448930        -0.617633         2.329734
 H         1.347112         1.203603         2.452276
 H        -0.743187         0.261440         0.980928
 H        -0.603003         0.961512        -0.661539
 H        -0.188875        -0.773214        -0.478608
 H         3.908587         2.071749        -0.084154
 H         4.224193        -0.878539        -0.151010
