19
Iteration:  2577charge 0 multiplicity 1
 C         4.293515         0.712456         2.616470
 C         3.238566         0.755957         1.618325
 C         1.801875         0.624391         1.962557
 C         1.281231         0.317588         0.415272
 C        -0.233401         0.165669         0.014224
 O         2.020348         1.519800        -0.282407
 C         3.372475         1.185783         0.164729
 C         3.339521        -0.281204         0.326265
 O         2.002475        -0.715365         0.012545
 H         4.105132         1.327219         3.531755
 H         4.625525        -0.193433         3.101568
 H         5.272764         1.126585         2.288536
 H         1.606504        -0.115480         2.748851
 H         1.402090         1.585023         2.293497
 H        -0.814137         0.029300         0.958386
 H        -0.770397         1.113924        -0.377389
 H        -0.340879        -0.641642        -0.702845
 H         4.061989         1.868466        -0.226757
 H         4.279826        -0.767476        -0.149067
