19
Iteration:  2797charge 0 multiplicity 1
 C         4.261106         0.941690         2.621572
 C         3.252411         0.532455         1.535409
 C         1.814748         0.525437         1.927543
 C         1.285344         0.430693         0.476980
 C        -0.188279         0.207636         0.009584
 O         2.036964         1.572740        -0.252242
 C         3.350399         1.192940         0.186255
 C         3.300023        -0.402822         0.292092
 O         1.970426        -0.759877         0.039804
 H         4.178586         1.957840         3.088898
 H         4.422087         0.260711         3.495136
 H         5.302294         1.119843         2.220322
 H         1.434279        -0.274114         2.566199
 H         1.637949         1.446714         2.488416
 H        -0.287843        -0.773722        -0.487246
 H        -0.920920         0.309691         0.790039
 H        -0.268968         0.952795        -0.824658
 H         4.165699         1.813426        -0.178635
 H         4.225070        -0.987553         0.211705
