19
Iteration:  4702
 C         4.384460         0.853876         2.516084
 C         3.115932         0.473725         1.619898
 C         1.677146         0.433583         1.866783
 C         1.296972         0.426216         0.434098
 C        -0.174198         0.114207         0.190481
 O         2.035259         1.608154        -0.130070
 C         3.293148         1.245301         0.278086
 C         3.403420        -0.245316         0.284895
 O         2.082258        -0.676311        -0.168398
 H         4.176723         1.911615         2.776338
 H         4.560114         0.323426         3.483767
 H         5.324982         0.870715         1.941874
 H         1.211934        -0.429442         2.368158
 H         1.293837         1.447686         2.151285
 H        -0.352578         0.227207        -0.977257
 H        -0.306061        -0.937271         0.371212
 H        -0.919045         0.868847         0.597299
 H         3.942332         2.123275         0.221904
 H         4.147761        -0.962408         0.122309
