19
Iteration:  4217
 C         4.321462         0.887497         2.555701
 C         3.207613         0.673830         1.577018
 C         1.757663         0.370643         1.921799
 C         1.277463         0.206475         0.458980
 C        -0.208505         0.402354         0.085598
 O         1.988890         1.455099        -0.227239
 C         3.173608         1.357819         0.253574
 C         3.450987        -0.262068         0.344633
 O         2.107875        -0.789702        -0.118867
 H         4.199365         1.746179         3.270527
 H         4.325359        -0.120164         3.038337
 H         5.347753         1.036354         2.084678
 H         1.733740        -0.538927         2.474699
 H         1.256898         1.052141         2.578237
 H        -0.339281         0.094635        -1.006787
 H        -0.808368        -0.054608         0.802811
 H        -0.349955         1.497049         0.236162
 H         4.036964         1.984132        -0.142196
 H         4.204578        -1.015154         0.393446
