19
Iteration:  1658charge 0 multiplicity 1
 C         4.412654         0.519850         2.643440
 C         3.310566         0.367921         1.580526
 C         1.816083         0.160227         1.855640
 C         1.246486         0.431954         0.425189
 C        -0.258075         0.118255         0.075836
 O         1.842470         1.745266         0.080989
 C         3.149658         1.458907         0.436275
 C         3.423924        -0.081270         0.168907
 O         2.186653        -0.446981        -0.364638
 H         3.835137         1.039869         3.385650
 H         4.933367        -0.422593         2.864318
 H         5.230038         1.208031         2.208322
 H         1.436874        -0.878449         2.129346
 H         1.322984         0.808875         2.631851
 H        -0.762775         1.001504        -0.213454
 H        -0.272960        -0.512182        -0.842297
 H        -0.648111        -0.531897         0.902910
 H         3.882684         2.293905         0.180657
 H         4.281628        -0.498446        -0.371886
