19
Iteration:  2651charge 0 multiplicity 1
 C         4.382307         0.867197         2.692373
 C         3.258447         0.638644         1.628808
 C         1.726086         0.460090         1.897240
 C         1.316111         0.315320         0.372092
 C        -0.172518         0.400426         0.066178
 O         1.891913         1.410412        -0.311625
 C         3.192375         1.228688         0.163993
 C         3.419267        -0.271505         0.410865
 O         2.086078        -0.741391        -0.054693
 H         4.753548         1.908739         2.988031
 H         4.412131         0.374782         3.667443
 H         5.318847         0.412089         2.249577
 H         1.647303        -0.462987         2.458664
 H         1.145085         1.224702         2.393861
 H        -0.762035         0.198477         0.968761
 H        -0.586395         1.411132        -0.303801
 H        -0.409242        -0.312285        -0.693813
 H         4.027517         1.814697        -0.073787
 H         4.256125        -0.972740        -0.012257
