19
Iteration:  1948
 C         4.345974         0.561708         2.622871
 C         3.216465         0.582212         1.528711
 C         1.747942         0.350741         1.891964
 C         1.334064         0.328317         0.453005
 C        -0.118018         0.219691         0.097009
 O         1.798848         1.621538        -0.017957
 C         3.215257         1.386352         0.245004
 C         3.409703        -0.117884         0.200929
 O         2.189057        -0.612784        -0.184565
 H         4.518037         1.619139         3.067940
 H         3.932402        -0.063201         3.528066
 H         5.343746         0.147436         2.291171
 H         1.696091        -0.655436         2.310365
 H         1.218577         1.159506         2.402631
 H        -0.552830         1.186966         0.368833
 H        -0.398439         0.005110        -0.974864
 H        -0.625541        -0.663337         0.605982
 H         3.915266         2.112261        -0.073232
 H         4.248927        -0.739388        -0.195667
