19
Iteration:  3087charge 0 multiplicity 1
 C         4.334246         0.824547         2.724265
 C         3.283271         0.606512         1.595847
 C         1.831378         0.447207         1.878225
 C         1.254183         0.404564         0.448967
 C        -0.172550         0.304427        -0.005960
 O         1.898104         1.538835        -0.188234
 C         3.259276         1.249536         0.125092
 C         3.425078        -0.279737         0.267073
 O         2.024583        -0.789148        -0.002041
 H         4.127280         1.726372         3.308248
 H         4.376188         0.004503         3.420879
 H         5.297150         0.921532         2.230766
 H         1.653787        -0.479276         2.518996
 H         1.382185         1.323181         2.473266
 H        -0.707923        -0.189920         0.843733
 H        -0.429873         1.336841        -0.291490
 H        -0.145456        -0.379377        -0.894056
 H         3.884656         2.035528        -0.300286
 H         4.136860        -1.008448        -0.101922
