19
Iteration:  4937
 C         4.336785         0.727618         2.648551
 C         3.285428         0.489475         1.610228
 C         1.770297         0.691059         1.977174
 C         1.231405         0.441556         0.389082
 C        -0.196587         0.021974         0.131970
 O         1.962455         1.651400        -0.283624
 C         3.267536         1.243192         0.125585
 C         3.319148        -0.246317         0.252104
 O         2.105739        -0.715561        -0.004543
 H         3.890281         1.404151         3.435633
 H         4.632243        -0.241021         3.132800
 H         5.288710         1.192669         2.282540
 H         1.358278        -0.053459         2.569047
 H         1.464177         1.613764         2.358937
 H        -0.299769         0.179272        -0.988443
 H        -0.094867        -1.021232         0.342666
 H        -0.983614         0.648223         0.595007
 H         4.132633         1.757763        -0.204606
 H         4.270698        -0.897887         0.032699
