19
Iteration:  3359
 C         4.322688         0.751061         2.615897
 C         3.198094         0.561815         1.573820
 C         1.704241         0.659078         1.877417
 C         1.290234         0.424107         0.428795
 C        -0.216843         0.231121         0.098988
 O         1.971996         1.433175        -0.323182
 C         3.271752         1.294110         0.229493
 C         3.425862        -0.237660         0.324440
 O         2.127111        -0.764576         0.021435
 H         4.530343         1.716067         3.113123
 H         4.144760        -0.120353         3.321658
 H         5.342984         0.497277         2.242400
 H         1.370190        -0.100098         2.585905
 H         1.427764         1.612738         2.356064
 H        -0.415972         0.248576        -0.967877
 H        -0.391541        -0.869174         0.286562
 H        -0.907235         0.883679         0.548446
 H         4.007684         2.053557         0.152170
 H         4.273382        -0.852462        -0.035292
