19
Iteration:  3775
 C         4.399825         0.818939         2.559177
 C         3.114928         0.686622         1.653720
 C         1.636296         0.467654         1.835837
 C         1.359957         0.344591         0.319452
 C        -0.156606         0.216624         0.130290
 O         1.984708         1.523651        -0.220373
 C         3.229796         1.282705         0.288553
 C         3.399794        -0.241171         0.410454
 O         2.133568        -0.814320        -0.118564
 H         4.495739         1.793138         3.101781
 H         4.566250        -0.015905         3.281527
 H         5.220739         0.866813         1.824582
 H         1.491435        -0.462882         2.426760
 H         0.965604         1.226838         2.238434
 H        -0.708617         0.351213        -0.933665
 H        -0.616757        -0.499616         0.825313
 H        -0.512953         1.235952         0.629179
 H         4.039140         1.981899        -0.004473
 H         4.280914        -0.771221         0.224558
