19
Iteration:  4858
 C         4.383102         0.842305         2.691633
 C         3.285192         0.680547         1.584861
 C         1.873846         0.370068         1.987232
 C         1.267587         0.270760         0.469471
 C        -0.181147         0.385855        -0.035258
 O         1.844019         1.478422        -0.201238
 C         3.210402         1.365164         0.244066
 C         3.389158        -0.235427         0.201026
 O         2.067576        -0.866414        -0.070339
 H         4.512585         1.911180         2.946250
 H         4.058772         0.308970         3.595509
 H         5.381984         0.503394         2.311692
 H         1.593549        -0.503914         2.522174
 H         1.357261         1.124074         2.542975
 H        -0.146039        -0.051455        -1.000185
 H        -1.006599        -0.173862         0.606834
 H        -0.281621         1.448515         0.152649
 H         3.858879         2.108375        -0.327386
 H         4.264156        -0.655258        -0.156918
