19
Iteration:  2821charge 0 multiplicity 1
 C         4.245725         0.849778         2.613335
 C         3.248888         0.583248         1.559804
 C         1.736197         0.630116         1.875735
 C         1.342358         0.409987         0.411688
 C        -0.126506         0.264970         0.098534
 O         1.985215         1.452500        -0.188716
 C         3.268299         1.184409         0.124044
 C         3.333523        -0.350479         0.400599
 O         2.073055        -0.737083        -0.032257
 H         4.488374         1.891218         2.809741
 H         4.238515         0.314548         3.610437
 H         5.207074         0.606689         2.131362
 H         1.338309        -0.225427         2.464434
 H         1.174013         1.503865         2.285381
 H        -0.251222        -0.736688        -0.311376
 H        -0.747737         0.358591         1.064860
 H        -0.343164         0.943637        -0.708221
 H         4.006928         1.833700        -0.230871
 H         4.294444        -0.833639        -0.018881
