19
Iteration:  4545charge 0 multiplicity 1
 C         4.391992         0.779924         2.687496
 C         3.316268         0.673956         1.522777
 C         1.858441         0.436612         1.965368
 C         1.244146         0.354109         0.509139
 C        -0.175588         0.369260        -0.007342
 O         1.825523         1.469652        -0.184085
 C         3.154005         1.341886         0.155981
 C         3.389823        -0.256720         0.286379
 O         2.122761        -0.843622        -0.074759
 H         3.809086         1.378093         3.386099
 H         4.721060        -0.151669         3.137063
 H         5.238259         1.445978         2.517466
 H         1.980229        -0.594396         2.484563
 H         1.297953         1.261002         2.516527
 H         0.004293         0.748663        -0.970332
 H        -0.775694        -0.631520        -0.117880
 H        -0.823142         1.023106         0.653490
 H         3.888382         2.004820        -0.295792
 H         4.254661        -0.922027        -0.042865
