19
Iteration:  2169
 C         4.343728         0.889406         2.615617
 C         3.297581         0.466498         1.592190
 C         1.813609         0.448106         1.884618
 C         1.261239         0.443615         0.378728
 C        -0.198730         0.240852         0.075045
 O         1.955246         1.522930        -0.142365
 C         3.312189         1.305798         0.379459
 C         3.336513        -0.273534         0.223852
 O         2.016709        -0.746803        -0.118377
 H         4.050107         1.846441         3.106549
 H         4.368938         0.072838         3.361886
 H         5.313937         0.942205         2.116980
 H         1.514966        -0.448275         2.400579
 H         1.460341         1.294252         2.413850
 H        -0.360620         1.100498        -0.542026
 H        -0.223389        -0.748479        -0.312879
 H        -0.981775         0.412814         0.741822
 H         4.085745         1.782296        -0.201440
 H         4.145491        -0.950606        -0.140903
