19
Iteration:  1285
 C         4.454225         0.196602         2.516782
 C         3.228940         0.460769         1.589020
 C         1.900275         0.000254         1.891238
 C         1.334105         0.350045         0.400206
 C        -0.148073         0.087142         0.043798
 O         1.638337         1.736089         0.207423
 C         3.062880         1.605019         0.650943
 C         3.399895         0.201970         0.025383
 O         2.251554        -0.315619        -0.455396
 H         4.397981         0.673200         3.527517
 H         4.509653        -0.867143         2.556320
 H         5.396984         0.531689         2.111122
 H         1.961145        -1.076545         2.140311
 H         1.272282         0.556508         2.628948
 H        -0.582862        -0.930993         0.206803
 H        -0.735571         0.858305         0.614975
 H        -0.366657         0.308160        -0.980893
 H         3.612136         2.563769         0.626666
 H         4.423413        -0.165488        -0.307064
