19
Iteration:   571charge 0 multiplicity 1
 C         4.424023         0.112499         2.362600
 C         3.326249         0.340189         1.504141
 C         2.043227        -0.404853         1.479502
 C         1.373097         0.274844         0.336980
 C        -0.184669         0.139281         0.077068
 O         1.521444         1.646424         0.791222
 C         2.906156         1.632433         0.999029
 C         3.482018         0.528293        -0.002778
 O         2.291009         0.029293        -0.701369
 H         4.286639         0.355761         3.419667
 H         4.646161        -0.961598         2.422936
 H         5.251516         0.653728         2.027282
 H         2.054378        -1.450198         1.263427
 H         1.460502        -0.405709         2.430807
 H        -0.755477         0.430092         0.964465
 H        -0.491702         0.762545        -0.799209
 H        -0.611238        -0.842141        -0.278853
 H         3.190504         2.654878         1.297614
 H         4.443756         0.528418        -0.686204
