19
Iteration:    57charge 0 multiplicity 1
 C         4.525564        -0.163646         2.186884
 C         3.316038         0.263194         1.419076
 C         2.077619        -0.661174         1.331290
 C         1.364926         0.296127         0.383743
 C        -0.005678        -0.076112        -0.065536
 O         1.408620         1.495611         1.159885
 C         2.822534         1.599061         1.239147
 C         3.379392         1.029829        -0.052580
 O         2.240288         0.538755        -0.758236
 H         4.392153        -0.186032         3.242059
 H         4.779339        -1.216831         1.847908
 H         5.387566         0.410598         1.990738
 H         2.268612        -1.701084         0.943991
 H         1.487829        -0.721914         2.216038
 H        -0.020755        -0.832516        -0.817791
 H        -0.605163        -0.389315         0.809425
 H        -0.359344         0.847780        -0.471299
 H         3.140524         2.483406         1.765648
 H         4.286019         1.335436        -0.666230
