19
Iteration:  1099
 C         4.473347         0.126262         2.493083
 C         3.290136         0.469397         1.562580
 C         1.928214        -0.123227         1.808284
 C         1.290824         0.282799         0.471236
 C        -0.136333         0.176974        -0.009479
 O         1.612786         1.681623         0.392037
 C         2.973543         1.650015         0.674679
 C         3.455965         0.324758         0.015348
 O         2.228105        -0.283555        -0.517791
 H         4.265617         0.759372         3.403005
 H         4.655052        -0.949681         2.746492
 H         5.472664         0.522384         2.148936
 H         1.967243        -1.234352         1.790673
 H         1.472842         0.287458         2.712266
 H        -0.214706        -0.688562        -0.642363
 H        -0.798063         0.009459         0.855925
 H        -0.341847         1.102670        -0.526472
 H         3.423018         2.609244         0.595488
 H         4.246740         0.327341        -0.688141
