19
Iteration:  1103
 C         4.440882         0.128228         2.490178
 C         3.348500         0.450548         1.535428
 C         1.863681        -0.131946         1.874355
 C         1.347040         0.270050         0.489435
 C        -0.112001         0.164308        -0.007987
 O         1.581117         1.707627         0.378179
 C         2.974098         1.652976         0.658991
 C         3.446821         0.365280        -0.010083
 O         2.228336        -0.276702        -0.510596
 H         4.220923         0.626982         3.412237
 H         4.666235        -0.971640         2.737103
 H         5.482481         0.501984         2.108434
 H         1.986901        -1.184517         1.838491
 H         1.444072         0.280527         2.792243
 H        -0.192738        -0.646246        -0.774618
 H        -0.828190        -0.113826         0.775982
 H        -0.362765         1.139724        -0.423881
 H         3.557723         2.589196         0.574654
 H         4.275841         0.091399        -0.712876
