19
Iteration:  2200
 C         4.302091         0.702191         2.602291
 C         3.263742         0.574347         1.542664
 C         1.735132         0.581481         1.912754
 C         1.284689         0.442143         0.460378
 C        -0.207176         0.187057         0.097158
 O         1.933908         1.616594        -0.151794
 C         3.306888         1.252719         0.091806
 C         3.401379        -0.260824         0.351393
 O         2.120045        -0.756517        -0.054334
 H         3.925618         1.320329         3.397240
 H         4.500569        -0.355917         2.983870
 H         5.213160         1.108535         2.208391
 H         1.479004        -0.372747         2.454364
 H         1.250088         1.345641         2.556579
 H        -0.607318         1.140766        -0.334683
 H        -0.219471        -0.458159        -0.898545
 H        -0.839636        -0.206134         0.901904
 H         4.043827         1.894872        -0.317992
 H         4.272285        -0.949756         0.211525
