19
Iteration:   708
 C         4.412370         0.145354         2.544520
 C         3.327134         0.301928         1.392351
 C         2.026796        -0.421920         1.631148
 C         1.303623         0.255717         0.449488
 C        -0.060865         0.141905        -0.030814
 O         1.606773         1.714454         0.759149
 C         2.975129         1.636858         0.853534
 C         3.380497         0.437473        -0.062423
 O         2.123916         0.056392        -0.720484
 H         3.946013         0.672379         3.347621
 H         4.637422        -0.890559         2.782078
 H         5.410292         0.601045         2.244504
 H         2.128882        -1.546626         1.482804
 H         1.764164        -0.325937         2.658604
 H         0.132501         0.332208        -1.090692
 H        -0.234654        -0.873466         0.314052
 H        -0.776027         0.738733         0.539809
 H         3.442208         2.609107         1.031425
 H         4.386654         0.392792        -0.689107
