19
Iteration:    56charge 0 multiplicity 1
 C         4.523491        -0.168266         2.177386
 C         3.310248         0.267071         1.420956
 C         2.073417        -0.662165         1.326159
 C         1.367443         0.297813         0.379647
 C        -0.007451        -0.077355        -0.060296
 O         1.401936         1.493825         1.161980
 C         2.819358         1.609957         1.238430
 C         3.395768         1.017062        -0.047303
 O         2.249148         0.542281        -0.756315
 H         4.387804        -0.170340         3.243138
 H         4.779445        -1.173019         1.845920
 H         5.398823         0.405360         1.963663
 H         2.262858        -1.678913         0.949597
 H         1.488320        -0.767293         2.207118
 H        -0.056577        -0.877679        -0.789215
 H        -0.578756        -0.346968         0.855409
 H        -0.377680         0.837181        -0.508241
 H         3.121236         2.467773         1.783317
 H         4.274378         1.343496        -0.669999
