19
Iteration:  2840
 C         4.387735         0.766759         2.643810
 C         3.296311         0.679484         1.604227
 C         1.738465         0.578935         1.882076
 C         1.281892         0.300433         0.372387
 C        -0.294676         0.283446         0.085011
 O         1.945898         1.512462        -0.365671
 C         3.296113         1.271669         0.249747
 C         3.423339        -0.193215         0.350511
 O         2.089684        -0.862654         0.018596
 H         4.510793         1.883692         2.902647
 H         3.830182         0.260628         3.463138
 H         5.357319         0.325594         2.325409
 H         1.475758        -0.097042         2.694161
 H         1.226342         1.507803         2.167858
 H        -0.637071        -0.691418        -0.281078
 H        -0.704825         0.443831         1.048179
 H        -0.396767         1.049529        -0.706667
 H         4.163049         1.807633        -0.033447
 H         3.979306        -1.168408         0.278711
