19
Iteration:    36charge 0 multiplicity 1
 C         4.600848        -0.180414         2.096007
 C         3.336820         0.189637         1.401605
 C         2.164627        -0.656259         1.189081
 C         1.336780         0.313352         0.283138
 C        -0.132216        -0.067821         0.031588
 O         1.328865         1.566784         1.068874
 C         2.722480         1.679970         1.307372
 C         3.379469         0.915241         0.174825
 O         2.356650         0.556733        -0.713560
 H         4.505954        -0.125458         3.158449
 H         4.908717        -1.297157         1.858258
 H         5.401216         0.462291         1.827211
 H         2.425356        -1.606887         0.592905
 H         1.661216        -0.851382         2.109638
 H        -0.174867        -1.113590         0.140564
 H        -0.711766         0.378392         0.838865
 H        -0.516635         0.260561        -0.907539
 H         3.090715         2.609519         1.696317
 H         4.438832         1.013166        -0.214311
