19
Iteration:  1920charge 0 multiplicity 1
 C         4.371060         0.448367         2.617796
 C         3.253275         0.606950         1.595587
 C         1.800838         0.391962         1.897228
 C         1.300100         0.302205         0.421916
 C        -0.184647         0.253046         0.053407
 O         1.765231         1.562160        -0.108282
 C         3.158553         1.485190         0.335138
 C         3.427781        -0.040499         0.147204
 O         2.230457        -0.675547        -0.128673
 H         4.536458         1.276966         3.344212
 H         4.209077        -0.224558         3.394640
 H         5.323375         0.158799         2.147555
 H         1.765761        -0.580092         2.446796
 H         1.301597         1.158135         2.524026
 H        -0.599609         1.178209        -0.381164
 H        -0.514597        -0.437855        -0.790686
 H        -0.757951         0.105432         0.966026
 H         3.861838         2.334821         0.069986
 H         4.337828        -0.543584        -0.186576
