19
Iteration:  3990
 C         4.370987         0.624582         2.545817
 C         3.170803         0.629461         1.638364
 C         1.700181         0.583273         1.840662
 C         1.294066         0.451247         0.346683
 C        -0.147878         0.207738         0.183499
 O         1.934637         1.411976        -0.396297
 C         3.187752         1.414203         0.298347
 C         3.386071        -0.180656         0.439664
 O         2.197888        -0.784116        -0.028547
 H         4.204465         1.345268         3.325532
 H         4.377160        -0.374826         3.026462
 H         5.387426         0.780572         2.193944
 H         1.252823        -0.259595         2.412922
 H         1.335985         1.565013         2.204452
 H        -0.462166         0.093750        -0.862990
 H        -0.462925        -0.613514         0.780430
 H        -0.691904         1.146933         0.466537
 H         3.952315         2.142724         0.245660
 H         4.364421        -0.660573         0.046049
