19
Iteration:   145charge 0 multiplicity 1
 C         4.647172        -0.143540         2.194783
 C         3.365676         0.163688         1.426025
 C         2.035162        -0.540052         1.331688
 C         1.252205         0.312054         0.381547
 C        -0.273479        -0.078976         0.002401
 O         1.379596         1.598045         0.919430
 C         2.791484         1.677252         1.215395
 C         3.463354         0.816038         0.114540
 O         2.443136         0.462166        -0.748095
 H         4.513948        -0.136317         3.220200
 H         5.225295        -0.998788         1.807718
 H         5.303115         0.625448         1.975598
 H         2.099695        -1.613987         1.049873
 H         1.561207        -0.653866         2.256801
 H        -0.813428         0.546800         0.676934
 H        -0.471939         0.190474        -1.028021
 H        -0.551205        -1.081038         0.269711
 H         3.073645         2.576758         1.831876
 H         4.426437         1.126808        -0.217794
