19
Iteration:  4664charge 0 multiplicity 1
 C         4.399625         0.739316         2.665380
 C         3.319080         0.666901         1.599179
 C         1.754890         0.405157         1.916076
 C         1.283530         0.265619         0.455742
 C        -0.161996         0.248242         0.045794
 O         1.846181         1.538075        -0.126178
 C         3.203646         1.328962         0.125708
 C         3.359641        -0.147188         0.232294
 O         2.116267        -0.725197        -0.073205
 H         4.652401         1.743301         2.976430
 H         4.097537         0.102641         3.488043
 H         5.312927         0.251821         2.315034
 H         1.622888        -0.503686         2.543683
 H         1.288379         1.217461         2.479537
 H         0.150966        -0.013683        -0.892665
 H        -0.912363        -0.423551         0.534769
 H        -0.599953         1.240167         0.053671
 H         3.773307         2.133988        -0.312382
 H         4.230468        -0.864214         0.087185
