19
Iteration:  3135
 C         4.357141         0.827435         2.567554
 C         3.168724         0.592381         1.611575
 C         1.706975         0.534123         1.802899
 C         1.317568         0.375411         0.336622
 C        -0.178628         0.241863         0.109206
 O         1.979056         1.573220        -0.141811
 C         3.302547         1.200731         0.176270
 C         3.318741        -0.288234         0.384993
 O         2.111168        -0.786793        -0.019387
 H         4.171231         1.506322         3.434668
 H         4.637150        -0.155042         3.042378
 H         5.234102         1.197928         2.012150
 H         1.148768        -0.271795         2.289935
 H         1.294934         1.487822         2.148828
 H        -0.367636        -0.820921         0.353340
 H        -0.610430         1.019341         0.850087
 H        -0.465434         0.513813        -0.919161
 H         4.223149         1.775635         0.011326
 H         4.292805        -0.671347         0.051976
