19
Iteration:  3402
 C         4.280285         0.900331         2.678420
 C         3.302418         0.715176         1.564256
 C         1.816607         0.446136         1.968691
 C         1.277968         0.370373         0.579719
 C        -0.078669         0.344322        -0.014533
 O         1.878568         1.474520        -0.202977
 C         3.276082         1.189869         0.171591
 C         3.344372        -0.361125         0.265143
 O         2.046105        -0.769686        -0.081607
 H         4.390253         1.959076         2.801026
 H         3.933128         0.255051         3.514088
 H         5.297376         0.662753         2.335598
 H         1.668148        -0.482570         2.503811
 H         1.290028         1.282572         2.428462
 H         0.109750        -0.161089        -0.981572
 H        -0.828965        -0.342744         0.546436
 H        -0.439190         1.348981        -0.116340
 H         3.874563         1.917368        -0.375771
 H         4.198429        -1.008777        -0.092860
