19
Iteration:  3130
 C         4.335512         0.851339         2.594787
 C         3.179659         0.555423         1.579097
 C         1.701429         0.521085         1.794504
 C         1.371693         0.397657         0.334297
 C        -0.153474         0.239701         0.135529
 O         1.979107         1.580440        -0.126181
 C         3.308814         1.175212         0.170556
 C         3.296546        -0.308875         0.395651
 O         2.100576        -0.766796        -0.040412
 H         4.200312         1.593334         3.373409
 H         4.705414        -0.120484         2.888165
 H         5.135323         1.225945         1.939337
 H         1.080227        -0.221796         2.358651
 H         1.404691         1.516855         2.233960
 H        -0.486478        -0.792179         0.367468
 H        -0.709163         1.018934         0.660383
 H        -0.524619         0.334501        -0.902371
 H         4.111839         1.950453         0.124145
 H         4.247052        -0.734203         0.135707
