19
Iteration:  1105charge 0 multiplicity 1
 C         4.434870         0.130331         2.486777
 C         3.373658         0.433720         1.518832
 C         1.839429        -0.133763         1.900876
 C         1.365801         0.267383         0.492371
 C        -0.097459         0.150223        -0.004430
 O         1.567822         1.721854         0.375243
 C         2.980619         1.656337         0.646649
 C         3.436686         0.382874        -0.023471
 O         2.230343        -0.271205        -0.502143
 H         4.208936         0.565498         3.463733
 H         4.623772        -0.915727         2.698335
 H         5.396342         0.471520         2.116155
 H         1.987453        -1.226877         1.895022
 H         1.409689         0.284207         2.829945
 H        -0.177235        -0.602613        -0.840994
 H        -0.841778        -0.167354         0.739612
 H        -0.391271         1.172812        -0.388012
 H         3.617719         2.578568         0.569269
 H         4.303113        -0.012539        -0.691378
