19
Iteration:  1630charge 0 multiplicity 1
 C         4.297816         0.387088         2.617528
 C         3.234502         0.553097         1.569540
 C         1.869730         0.230507         1.927417
 C         1.317714         0.242524         0.445630
 C        -0.063918         0.184434         0.085349
 O         1.773141         1.691643         0.143691
 C         3.093177         1.464156         0.378908
 C         3.411121         0.080571         0.040274
 O         2.214601        -0.534399        -0.321647
 H         4.043852         1.049298         3.457972
 H         4.480518        -0.695763         2.829738
 H         5.268918         0.756550         2.233002
 H         1.662779        -0.801951         2.145751
 H         1.152970         0.809601         2.497737
 H        -0.276816         1.103064        -0.566758
 H        -0.435309        -0.669385        -0.553150
 H        -0.729139         0.313137         0.950026
 H         3.749777         2.280883         0.089247
 H         4.276962        -0.382442        -0.442015
