19
Iteration:   923charge 0 multiplicity 1
 C         4.463482         0.150238         2.492323
 C         3.337876         0.309240         1.440707
 C         1.877321        -0.272789         1.757428
 C         1.281737         0.322592         0.482510
 C        -0.098477         0.047632        -0.052968
 O         1.606988         1.799237         0.607428
 C         3.058804         1.615425         0.699069
 C         3.427287         0.420062        -0.077355
 O         2.209540        -0.108408        -0.521452
 H         4.135739         0.573187         3.430451
 H         4.665660        -0.869834         2.840492
 H         5.332691         0.727828         2.169212
 H         1.698641        -1.372538         1.551997
 H         1.544512        -0.043217         2.751795
 H        -0.152572         0.122145        -1.143076
 H        -0.366670        -0.994565         0.080727
 H        -0.823744         0.744254         0.396258
 H         3.496304         2.519763         1.056439
 H         4.142798         0.439768        -0.834141
