19
Iteration:  1516charge 0 multiplicity 1
 C         4.322383         0.450473         2.632087
 C         3.338125         0.536314         1.534746
 C         1.848000        -0.018134         1.842062
 C         1.335859         0.259583         0.493130
 C        -0.132009         0.304719         0.007682
 O         1.654021         1.637858         0.189704
 C         3.113707         1.562101         0.410457
 C         3.441295        -0.018022         0.080323
 O         2.189514        -0.441925        -0.344087
 H         4.063577         1.020537         3.508168
 H         4.706110        -0.580345         2.839872
 H         5.311021         0.941656         2.289911
 H         2.003202        -1.096062         2.066917
 H         1.338355         0.420243         2.718659
 H        -0.563004        -0.660333         0.276370
 H        -0.517683         1.074069         0.634182
 H        -0.135516         0.681663        -1.064406
 H         3.671443         2.452424         0.252807
 H         4.328415        -0.326364        -0.490577
