19
Iteration:  4750charge 0 multiplicity 1
 C         4.282113         0.714128         2.697826
 C         3.295954         0.626460         1.474291
 C         1.776582         0.476531         1.948065
 C         1.251477         0.250473         0.490975
 C        -0.136148         0.315440         0.039976
 O         1.802418         1.482767        -0.248176
 C         3.287552         1.342751         0.128859
 C         3.438106        -0.106695         0.231368
 O         2.136881        -0.773482         0.107743
 H         3.961661         1.323674         3.599881
 H         4.457525        -0.358165         3.001523
 H         5.318711         1.069798         2.365255
 H         1.770797        -0.497082         2.421424
 H         1.438762         1.336523         2.474474
 H        -0.197697         0.723868        -0.963702
 H        -0.540611        -0.788101        -0.100506
 H        -0.780699         0.995642         0.620496
 H         3.897127         2.121585        -0.438899
 H         4.214942        -0.734677        -0.299039
