19
Iteration:  2588
 C         4.376817         0.769630         2.709295
 C         3.276247         0.588391         1.579164
 C         1.797426         0.659298         1.946182
 C         1.221407         0.417035         0.443269
 C        -0.172797         0.189309         0.016795
 O         2.014788         1.493056        -0.250190
 C         3.294271         1.239674         0.213860
 C         3.302531        -0.273521         0.295914
 O         2.010896        -0.752878        -0.060152
 H         3.879735         1.588778         3.288591
 H         4.603783        -0.122276         3.263666
 H         5.200705         1.272784         2.167063
 H         1.728346        -0.100224         2.727533
 H         1.466313         1.639477         2.291706
 H        -0.750508        -0.151837         0.909337
 H        -0.649716         1.029105        -0.598522
 H        -0.184399        -0.728698        -0.583584
 H         4.057896         1.742758        -0.288962
 H         4.005551        -1.118350        -0.100136
