19
Iteration:  4115charge 0 multiplicity 1
 C         4.347073         0.734247         2.636285
 C         3.281077         0.645694         1.626851
 C         1.739218         0.500094         1.858517
 C         1.299169         0.306847         0.402979
 C        -0.265881         0.240381         0.082662
 O         1.941790         1.496892        -0.293279
 C         3.202326         1.309759         0.212175
 C         3.445196        -0.179905         0.273571
 O         2.128529        -0.749151         0.041402
 H         4.431673         1.769830         3.121204
 H         4.156888         0.110691         3.555240
 H         5.291043         0.491150         2.081890
 H         1.533060        -0.404174         2.477614
 H         1.402738         1.431020         2.405740
 H        -0.393569         0.495709        -0.952197
 H        -0.701241        -0.812087         0.265468
 H        -0.761460         0.989013         0.730075
 H         3.887279         2.016538        -0.210717
 H         4.371484        -0.766581         0.002255
