19
Iteration:  2370charge 0 multiplicity 1
 C         4.267127         0.715948         2.612863
 C         3.281865         0.597608         1.551834
 C         1.716975         0.659765         1.882904
 C         1.268084         0.432536         0.478534
 C        -0.181308         0.175112         0.077120
 O         1.951272         1.518636        -0.257350
 C         3.323462         1.248111         0.142847
 C         3.401080        -0.271071         0.327061
 O         2.079809        -0.780484         0.034265
 H         4.036210         1.446977         3.420642
 H         4.385036        -0.325552         3.027988
 H         5.221196         0.956888         2.090288
 H         1.441077        -0.050262         2.676182
 H         1.538442         1.701116         2.223961
 H        -0.687844        -0.441429         0.807733
 H        -0.666907         1.194964         0.123289
 H        -0.265723        -0.113446        -0.971734
 H         4.184205         1.888474        -0.146745
 H         4.308184        -0.795054         0.004834
