19
Iteration:  2768
 C         4.402253         0.906438         2.683501
 C         3.262010         0.643757         1.567357
 C         1.689894         0.537164         1.906598
 C         1.295020         0.380982         0.399372
 C        -0.184227         0.364164        -0.004247
 O         1.902020         1.427378        -0.245878
 C         3.284189         1.167733         0.159695
 C         3.362134        -0.355516         0.333612
 O         2.089965        -0.799730         0.030009
 H         4.136919         1.638965         3.430293
 H         4.642085        -0.086256         3.161098
 H         5.336833         1.276386         2.174476
 H         1.304005        -0.249955         2.603903
 H         1.357858         1.545347         2.294429
 H        -0.547851        -0.601890        -0.335758
 H        -0.773800         0.687401         0.948580
 H        -0.175254         1.117889        -0.781427
 H         4.043049         1.751017        -0.276408
 H         4.385657        -0.895424         0.247690
