19
Iteration:   257
 C         4.495155        -0.046866         2.226156
 C         3.251684         0.226899         1.442574
 C         2.066171        -0.638323         1.451147
 C         1.289831         0.290721         0.381434
 C        -0.149094         0.056511        -0.018234
 O         1.452297         1.590984         0.925589
 C         2.900838         1.643210         1.155210
 C         3.441396         0.806184         0.006933
 O         2.355909         0.326993        -0.705020
 H         4.415231        -0.002560         3.260922
 H         5.102809        -0.895764         1.799366
 H         5.207451         0.743775         2.005480
 H         2.312268        -1.558708         0.938769
 H         1.556621        -0.872902         2.485905
 H        -0.238207        -0.559139        -0.926221
 H        -0.700996        -0.431862         0.773274
 H        -0.665942         1.011290        -0.127349
 H         3.083226         2.611758         1.662585
 H         4.353221         1.222729        -0.559208
