19
Iteration:  2630
 C         4.295962         0.874106         2.529671
 C         3.204098         0.625016         1.574302
 C         1.759082         0.469857         1.928198
 C         1.287684         0.322070         0.444770
 C        -0.196987         0.372814         0.065123
 O         2.027278         1.448974        -0.216901
 C         3.327284         1.301623         0.256510
 C         3.325530        -0.275137         0.313088
 O         2.088530        -0.837416        -0.040575
 H         4.336667         1.939234         2.998316
 H         4.190600         0.232554         3.437752
 H         5.374094         0.703593         2.222541
 H         1.469079        -0.499259         2.306401
 H         1.280461         1.238624         2.510265
 H        -0.928399         0.285860         0.890520
 H        -0.506371         1.341871        -0.471955
 H        -0.510409        -0.383031        -0.645523
 H         4.015247         1.898417        -0.288300
 H         4.317348        -0.862703         0.383557
