19
Iteration:  4696charge 0 multiplicity 1
 C         4.360083         0.858794         2.487187
 C         3.168845         0.451984         1.617668
 C         1.702499         0.454540         1.892892
 C         1.249261         0.428073         0.326383
 C        -0.160304         0.140807         0.199250
 O         2.006889         1.597506        -0.139799
 C         3.295428         1.255105         0.361248
 C         3.363258        -0.245524         0.271424
 O         2.121981        -0.673787        -0.132641
 H         4.348135         1.931561         2.779803
 H         4.381551         0.327561         3.450130
 H         5.332180         0.688616         1.960698
 H         1.236601        -0.401918         2.373899
 H         1.352932         1.324728         2.450434
 H        -0.293604         0.104702        -0.841382
 H        -0.408820        -0.953126         0.370689
 H        -0.928008         0.865560         0.389459
 H         3.854293         2.148539         0.062983
 H         4.236752        -0.966337         0.055433
