19
Iteration:  4326charge 0 multiplicity 1
 C         4.279503         0.656733         2.557795
 C         3.224688         0.769604         1.540204
 C         1.790983         0.587518         1.930142
 C         1.318135         0.370851         0.442820
 C        -0.136342         0.258073         0.074643
 O         1.857902         1.379625        -0.206192
 C         3.218965         1.365635         0.178334
 C         3.408064        -0.167844         0.325397
 O         2.171488        -0.835221         0.015440
 H         4.084197         1.269469         3.488932
 H         4.089245        -0.368624         2.988360
 H         5.336177         0.761856         2.148421
 H         1.625907        -0.419404         2.331365
 H         1.345791         1.460764         2.436316
 H        -0.235798         0.822659        -0.891188
 H        -0.723977        -0.636408        -0.048958
 H        -0.654509         0.928188         0.769473
 H         3.929828         2.001360        -0.237498
 H         4.405581        -0.648765         0.041901
