19
Iteration:  4500charge 0 multiplicity 1
 C         4.357549         0.761958         2.533748
 C         3.228874         0.514409         1.604117
 C         1.714436         0.507270         1.894951
 C         1.320226         0.427582         0.387405
 C        -0.080500         0.157553         0.162807
 O         1.927750         1.551852        -0.241195
 C         3.243748         1.325962         0.276221
 C         3.358566        -0.229715         0.366148
 O         2.096264        -0.717476        -0.148980
 H         4.255284         1.757640         2.974029
 H         4.217001         0.061992         3.343225
 H         5.370812         0.619892         2.161216
 H         1.253249        -0.392093         2.466863
 H         1.429341         1.505002         2.452176
 H        -0.448084         0.064957        -0.874328
 H        -0.488323        -0.799364         0.644522
 H        -0.906858         0.731571         0.685745
 H         3.972856         2.214911         0.280108
 H         4.168931        -0.721157        -0.038899
