19
Iteration:   126
 C         4.580716        -0.034984         2.139205
 C         3.252218         0.169606         1.478408
 C         2.030627        -0.706567         1.356130
 C         1.407977         0.312056         0.274706
 C        -0.050829         0.060868         0.048989
 O         1.397048         1.601041         0.916653
 C         2.770239         1.559698         1.287904
 C         3.430179         0.879076         0.095377
 O         2.312460         0.429267        -0.746673
 H         4.481599        -0.299018         3.205568
 H         5.138851        -0.915607         1.623984
 H         5.263533         0.837638         2.061896
 H         2.120272        -1.755636         1.003057
 H         1.363158        -0.770048         2.313993
 H        -0.640488         0.979562         0.210717
 H        -0.259636        -0.351444        -0.920840
 H        -0.324049        -0.624454         0.867247
 H         3.058570         2.474784         1.788411
 H         4.299304         1.084485        -0.460488
