19
Iteration:  2634charge 0 multiplicity 1
 C         4.356691         0.875943         2.561674
 C         3.191756         0.672112         1.612179
 C         1.777333         0.441543         1.908780
 C         1.255778         0.334452         0.451566
 C        -0.195859         0.386302         0.073816
 O         2.000370         1.420448        -0.255283
 C         3.360139         1.277094         0.276134
 C         3.354898        -0.261187         0.338149
 O         2.057980        -0.842393        -0.075198
 H         4.350373         1.906639         2.909719
 H         4.032461         0.249566         3.405428
 H         5.374753         0.689640         2.236905
 H         1.420417        -0.546053         2.294109
 H         1.321202         1.272037         2.497603
 H        -0.963038         0.229536         0.872520
 H        -0.337066         1.302879        -0.425498
 H        -0.578603        -0.394271        -0.683251
 H         3.907147         2.105214        -0.289094
 H         4.253950        -0.816119         0.365598
