19
Iteration:  3200
 C         4.327831         0.733973         2.649729
 C         3.273874         0.670749         1.577009
 C         1.769228         0.611234         1.806732
 C         1.255229         0.295300         0.466838
 C        -0.159490         0.125239         0.015008
 O         1.985985         1.637093        -0.157229
 C         3.327540         1.294485         0.139567
 C         3.371103        -0.225931         0.289980
 O         2.028791        -0.823335         0.026547
 H         4.428663         1.736293         3.054325
 H         3.941046         0.105300         3.408456
 H         5.269324         0.323334         2.365213
 H         1.560299        -0.126156         2.589011
 H         1.313120         1.542192         2.149711
 H        -0.394747        -0.796314        -0.511931
 H        -0.823048         0.176891         0.926669
 H        -0.569053         0.945477        -0.593421
 H         3.997436         2.043205        -0.091530
 H         3.980691        -1.056592         0.022026
