19
Iteration:   595charge 0 multiplicity 1
 C         4.485250         0.007977         2.472916
 C         3.361799         0.237618         1.476805
 C         2.008777        -0.504251         1.691188
 C         1.346769         0.262791         0.485076
 C        -0.056702         0.091233        -0.009960
 O         1.506530         1.727507         0.736415
 C         2.895619         1.702503         0.781937
 C         3.369787         0.643169        -0.078409
 O         2.232210         0.104368        -0.682238
 H         4.226678         0.148117         3.476205
 H         4.839512        -1.091666         2.499802
 H         5.330432         0.669695         2.257140
 H         1.865983        -1.579808         1.628842
 H         1.642575        -0.237569         2.711089
 H        -0.852845        -0.378789         0.600733
 H        -0.447903         1.060722        -0.457510
 H         0.023628        -0.500437        -0.968693
 H         3.371615         2.660339         0.938097
 H         4.154519         0.660907        -0.808324
