19
Iteration:  3185charge 0 multiplicity 1
 C         4.298056         0.673756         2.719545
 C         3.299797         0.678183         1.473242
 C         1.764063         0.588750         1.932408
 C         1.326168         0.370999         0.435368
 C        -0.156400         0.227300        -0.008222
 O         1.863155         1.546752        -0.191538
 C         3.235411         1.316236         0.110242
 C         3.360535        -0.274783         0.249001
 O         2.108828        -0.795074         0.115094
 H         4.442294         1.650411         3.235686
 H         4.061453        -0.061164         3.513062
 H         5.269955         0.448659         2.261718
 H         1.510235        -0.359480         2.478103
 H         1.450330         1.577658         2.385818
 H        -0.168481        -0.755628        -0.510229
 H        -0.924241         0.367021         0.761562
 H        -0.173420         0.954205        -0.796742
 H         3.997047         1.819312        -0.571909
 H         4.366895        -0.660305         0.097041
