19
Iteration:  4346
 C         4.329172         0.750178         2.680678
 C         3.291901         0.672910         1.536835
 C         1.782308         0.497143         1.936296
 C         1.279031         0.231050         0.483961
 C        -0.146725         0.222048         0.052763
 O         1.903333         1.622775        -0.158662
 C         3.238076         1.253966         0.062012
 C         3.365917        -0.230084         0.287785
 O         2.082656        -0.732045        -0.012911
 H         3.886019         1.336462         3.480329
 H         4.583453        -0.184292         3.176309
 H         5.197529         1.230318         2.215373
 H         1.569088        -0.315663         2.678851
 H         1.456474         1.572915         2.142383
 H        -0.158232         0.565549        -1.044108
 H        -0.254717        -0.822060        -0.060169
 H        -0.921030         0.778245         0.600159
 H         3.967611         1.824189        -0.461452
 H         4.139959        -1.028839         0.102332
