19
Iteration:  4387charge 0 multiplicity 1
 C         4.318317         0.902849         2.537331
 C         3.167487         0.513901         1.631459
 C         1.695423         0.405175         1.939566
 C         1.329218         0.403193         0.444447
 C        -0.163628         0.205632         0.156084
 O         2.009538         1.563997        -0.193248
 C         3.258968         1.235626         0.238647
 C         3.401370        -0.260523         0.268386
 O         2.085732        -0.697987        -0.151651
 H         4.046142         1.603067         3.322525
 H         4.710694         0.010378         3.033022
 H         5.177348         1.266949         1.972902
 H         1.227741        -0.402839         2.551624
 H         1.316667         1.398697         2.373926
 H        -0.301581         0.077611        -0.986812
 H        -0.352404        -0.722624         0.723920
 H        -0.804051         1.081394         0.519444
 H         4.071923         1.912224        -0.086286
 H         4.218215        -0.978604         0.064634
