19
Iteration:  4389
 C         4.320246         0.903664         2.535702
 C         3.179821         0.511615         1.621115
 C         1.685405         0.406672         1.923501
 C         1.337229         0.385630         0.458408
 C        -0.165978         0.198498         0.167240
 O         2.009326         1.572179        -0.194840
 C         3.263588         1.235905         0.236894
 C         3.390668        -0.247258         0.296751
 O         2.085120        -0.701487        -0.157497
 H         4.050435         1.578892         3.322136
 H         4.662652         0.008024         3.035898
 H         5.164853         1.225874         1.934926
 H         1.255310        -0.458705         2.522900
 H         1.287300         1.407026         2.352011
 H        -0.294516         0.124835        -0.979844
 H        -0.412144        -0.690376         0.709471
 H        -0.698888         1.143923         0.470805
 H         3.998820         1.902326        -0.122176
 H         4.264354        -0.937289         0.078546
