19
Iteration:  3142charge 0 multiplicity 1
 C         4.369561         0.768627         2.553862
 C         3.207720         0.633676         1.651027
 C         1.679773         0.554859         1.840298
 C         1.254932         0.363098         0.367292
 C        -0.181872         0.265807         0.075692
 O         1.977673         1.557295        -0.215652
 C         3.276826         1.240040         0.236635
 C         3.402728        -0.246095         0.359063
 O         2.104690        -0.810222        -0.015424
 H         4.072981         1.450644         3.366950
 H         4.585284        -0.097281         3.141726
 H         5.288414         1.140687         2.128127
 H         1.471945        -0.392853         2.434694
 H         1.128605         1.502138         2.147942
 H        -0.414060        -0.805810         0.302781
 H        -0.619698         0.803880         0.958799
 H        -0.421254         0.663446        -0.906415
 H         4.170737         1.691147        -0.331675
 H         4.222645        -0.897096         0.012758
