19
Iteration:  2911
 C         4.434147         0.851783         2.698318
 C         3.246829         0.515667         1.620853
 C         1.753107         0.620506         1.847381
 C         1.308749         0.448088         0.441995
 C        -0.256269         0.193683         0.024354
 O         1.961274         1.535656        -0.250320
 C         3.317968         1.205003         0.233529
 C         3.316455        -0.320970         0.293666
 O         2.049295        -0.766167        -0.026518
 H         4.012708         1.670364         3.248574
 H         4.549804        -0.005990         3.335684
 H         5.318823         1.234522         2.174498
 H         1.362460        -0.108854         2.605780
 H         1.381200         1.621208         2.230107
 H        -0.389168        -0.882375         0.277566
 H        -1.055251         0.729689         0.568763
 H        -0.329158         0.210410        -1.097952
 H         4.161024         1.816147        -0.322425
 H         4.286305        -0.792580         0.053153
