19
Iteration:  2397charge 0 multiplicity 1
 C         4.343585         0.695020         2.702617
 C         3.307051         0.701001         1.618190
 C         1.771168         0.691372         1.826566
 C         1.288969         0.488353         0.457558
 C        -0.126693         0.126775         0.071581
 O         1.957044         1.526546        -0.267469
 C         3.274338         1.208186         0.088266
 C         3.305315        -0.294735         0.374839
 O         1.984087        -0.784523        -0.026445
 H         4.077906         1.337451         3.553021
 H         4.532576        -0.320877         3.066242
 H         5.267914         1.067716         2.258992
 H         1.485837        -0.104394         2.525412
 H         1.510918         1.694492         2.173422
 H        -0.192350        -0.932077         0.410491
 H        -0.866131         0.710494         0.564003
 H        -0.192113         0.324884        -1.010534
 H         4.031565         1.862101        -0.228933
 H         4.235462        -0.929233         0.276702
