19
Iteration:  3266charge 0 multiplicity 1
 C         4.261956         0.851401         2.651042
 C         3.286574         0.677369         1.528594
 C         1.794196         0.538920         1.917190
 C         1.223351         0.232944         0.434537
 C        -0.197932         0.359214        -0.033048
 O         1.922800         1.481769        -0.149334
 C         3.344955         1.226774         0.120569
 C         3.355269        -0.258410         0.322168
 O         2.120496        -0.827622         0.029022
 H         4.120318         1.720875         3.267403
 H         4.362788        -0.027543         3.203466
 H         5.256657         1.013647         2.294813
 H         1.674670        -0.335104         2.581950
 H         1.366836         1.365578         2.507396
 H        -0.329348         0.225689        -1.112620
 H        -0.753896        -0.429163         0.500580
 H        -0.511353         1.416365         0.243982
 H         3.960640         1.917095        -0.512204
 H         4.258960        -0.907875         0.224547
