19
Iteration:  3166charge 0 multiplicity 1
 C         4.324504         0.702080         2.634333
 C         3.230553         0.646343         1.600455
 C         1.874294         0.552150         1.963475
 C         1.231445         0.393054         0.486434
 C        -0.164990         0.276491        -0.020472
 O         1.885673         1.378814        -0.305125
 C         3.238667         1.323454         0.091925
 C         3.380722        -0.201637         0.368106
 O         2.104323        -0.724284         0.017273
 H         4.233897         1.470397         3.423906
 H         4.173203        -0.141267         3.248029
 H         5.343429         0.670138         2.336366
 H         1.514220        -0.403725         2.432644
 H         1.476113         1.530369         2.371377
 H        -0.348744        -0.802737        -0.219815
 H        -0.793524         0.618980         0.899421
 H        -0.100967         0.984610        -0.857887
 H         3.991342         2.131022         0.008585
 H         4.205338        -0.863630         0.033055
