19
Iteration:  4898
 C         4.302107         0.830428         2.572399
 C         3.194434         0.601154         1.555695
 C         1.714981         0.467225         1.934052
 C         1.301878         0.319782         0.460660
 C        -0.139882         0.232900         0.135573
 O         1.958882         1.582732        -0.222631
 C         3.251892         1.276196         0.218760
 C         3.365323        -0.252518         0.328118
 O         2.141183        -0.774925        -0.128885
 H         4.224262         1.812378         3.034725
 H         4.365258         0.084992         3.368735
 H         5.256949         0.776554         2.053338
 H         1.649672        -0.499240         2.562824
 H         1.336292         1.430857         2.430415
 H        -0.461025         0.347502        -0.918788
 H        -0.651465        -0.608548         0.600779
 H        -0.620341         1.091799         0.635296
 H         4.121558         1.840775        -0.217972
 H         4.209082        -0.932900         0.171652
