19
Iteration:  2454
 C         4.331998         0.877907         2.594040
 C         3.254400         0.674654         1.574688
 C         1.740837         0.535394         1.938176
 C         1.321408         0.354460         0.411559
 C        -0.202246         0.382238         0.029977
 O         1.911690         1.486520        -0.212790
 C         3.250986         1.142518         0.213857
 C         3.374936        -0.364461         0.407021
 O         2.134292        -0.815167        -0.074502
 H         4.331538         1.944415         2.881742
 H         4.348472         0.375453         3.493293
 H         5.361218         0.787400         2.232984
 H         1.516339        -0.341292         2.518397
 H         1.184318         1.376209         2.308214
 H        -0.613564        -0.604203        -0.198279
 H        -0.651054         0.827448         0.898427
 H        -0.446199         1.029780        -0.843670
 H         4.054955         1.634030        -0.370025
 H         4.230505        -1.038904         0.208753
