19
Iteration:  4159charge 0 multiplicity 1
 C         4.315821         0.710706         2.655851
 C         3.314555         0.628322         1.568950
 C         1.850672         0.675672         1.947184
 C         1.233923         0.316726         0.499645
 C        -0.145635         0.016375        -0.001901
 O         1.938219         1.555319        -0.173314
 C         3.297517         1.236025         0.055976
 C         3.302609        -0.198543         0.289583
 O         2.020919        -0.622810        -0.001433
 H         3.963299         1.402179         3.521264
 H         4.377719        -0.233799         3.323897
 H         5.370734         0.978404         2.315838
 H         1.640494        -0.184316         2.648587
 H         1.483467         1.707650         2.296702
 H        -0.180044         0.181571        -1.080444
 H        -0.455040        -1.091877         0.102965
 H        -0.873263         0.752840         0.377208
 H         4.120614         1.829218        -0.206804
 H         4.089512        -0.906061        -0.120438
