19
Iteration:   668
 C         4.536291        -0.017258         2.361569
 C         3.325334         0.332642         1.497224
 C         1.946982        -0.397179         1.632522
 C         1.263763         0.362337         0.412014
 C        -0.213340         0.099111         0.053242
 O         1.553203         1.717637         0.574049
 C         2.878094         1.703165         0.973796
 C         3.477874         0.588018         0.063344
 O         2.365319        -0.051400        -0.701466
 H         4.421573         0.125894         3.551207
 H         4.706036        -1.077155         2.328409
 H         5.399705         0.535472         2.053941
 H         1.975443        -1.501886         1.597762
 H         1.358957        -0.014623         2.538449
 H        -0.345755        -0.690399        -0.670043
 H        -0.762658        -0.341791         0.913232
 H        -0.797431         0.964327        -0.279524
 H         3.232797         2.712581         1.134278
 H         4.450914         0.590073        -0.483121
