19
Iteration:   342charge 0 multiplicity 1
 C         4.651679        -0.089388         2.274172
 C         3.305681         0.166058         1.556339
 C         1.952595        -0.513772         1.419539
 C         1.273330         0.402067         0.339055
 C        -0.135745        -0.048579         0.064134
 O         1.429257         1.673349         0.829944
 C         2.860714         1.650196         1.064766
 C         3.396010         0.742777         0.089724
 O         2.362750         0.314193        -0.773479
 H         4.534285        -0.100328         3.388331
 H         4.848147        -1.217729         2.149946
 H         5.362399         0.613934         1.918269
 H         2.108694        -1.538013         1.109552
 H         1.391289        -0.434351         2.362098
 H        -0.817289         0.791111         0.286842
 H        -0.214558        -0.366267        -0.967920
 H        -0.357908        -0.875189         0.753482
 H         3.276018         2.674481         1.248728
 H         4.453034         0.962040        -0.267358
