19
Iteration:  3119charge 0 multiplicity 1
 C         4.300544         0.848832         2.549847
 C         3.219078         0.495457         1.621554
 C         1.692364         0.535104         1.878298
 C         1.284818         0.441287         0.400386
 C        -0.129610         0.234761         0.109948
 O         1.986956         1.568681        -0.197270
 C         3.301335         1.215279         0.248883
 C         3.422114        -0.356784         0.352011
 O         2.053077        -0.727954        -0.113610
 H         3.955988         1.569516         3.287936
 H         4.793655         0.064356         3.115582
 H         5.089589         1.367848         1.995047
 H         1.464518        -0.304928         2.562804
 H         1.403775         1.548898         2.259285
 H        -0.470078        -0.621968         0.722726
 H        -0.759320         1.047062         0.458281
 H        -0.261685         0.052649        -0.966498
 H         3.947522         2.055160        -0.035183
 H         4.028673        -1.227326         0.204247
