19
Iteration:  2119
 C         4.319073         0.650678         2.606742
 C         3.246802         0.702763         1.555315
 C         1.807058         0.391855         1.927605
 C         1.297569         0.346579         0.431812
 C        -0.120563         0.284274         0.081380
 O         1.914027         1.502518        -0.185474
 C         3.214852         1.376059         0.233308
 C         3.339286        -0.187355         0.318530
 O         2.097080        -0.762139        -0.104886
 H         4.465647         1.718754         2.877258
 H         4.092834         0.072631         3.465673
 H         5.289182         0.318204         2.152465
 H         1.679360        -0.641171         2.338279
 H         1.178416         1.132249         2.506096
 H        -0.275641         0.230596        -1.019952
 H        -0.628575        -0.410192         0.744704
 H        -0.566047         1.330939         0.244655
 H         3.991340         2.234651         0.048923
 H         4.265184        -0.640865        -0.005320
