19
Iteration:   244charge 0 multiplicity 1
 C         4.478551         0.031885         2.186835
 C         3.246218         0.188522         1.494774
 C         2.064607        -0.750180         1.359466
 C         1.337465         0.308271         0.424308
 C        -0.110132         0.061882         0.079510
 O         1.437251         1.619038         0.877721
 C         2.803906         1.626144         1.116382
 C         3.479096         0.764541         0.070003
 O         2.357630         0.441394        -0.731588
 H         4.373907         0.019945         3.276431
 H         4.853878        -1.023279         1.918655
 H         5.159310         0.783719         1.905771
 H         2.225151        -1.757761         0.965319
 H         1.525671        -0.829958         2.302706
 H        -0.160182        -0.884053        -0.492871
 H        -0.667008        -0.054252         0.998136
 H        -0.454982         0.847134        -0.582119
 H         3.277697         2.399723         1.668503
 H         4.459306         0.784405        -0.490907
