19
Iteration:  2812
 C         4.279513         0.900183         2.573546
 C         3.251307         0.558651         1.586812
 C         1.685655         0.594521         1.949675
 C         1.327062         0.458923         0.458866
 C        -0.053838         0.253151         0.051822
 O         1.947954         1.503742        -0.204408
 C         3.306667         1.080893         0.124736
 C         3.381647        -0.337068         0.332258
 O         2.055941        -0.699565        -0.010371
 H         3.998005         1.907474         2.801063
 H         4.003589         0.233543         3.408222
 H         5.275703         0.716959         2.200998
 H         1.406998        -0.312627         2.541810
 H         1.193922         1.540030         2.335358
 H        -0.083013        -0.786245        -0.265502
 H        -0.723812         0.301717         1.012601
 H        -0.408457         0.924245        -0.708444
 H         4.127409         1.697293        -0.201416
 H         3.934810        -1.226791        -0.054359
