19
Iteration:  1813charge 0 multiplicity 1
 C         4.323199         0.523086         2.589072
 C         3.238551         0.528793         1.629666
 C         1.811206         0.188285         1.892803
 C         1.320204         0.351054         0.436504
 C        -0.197486         0.273095         0.062403
 O         1.759552         1.622043         0.041349
 C         3.221550         1.461732         0.247990
 C         3.426644        -0.003905         0.149003
 O         2.217158        -0.647135        -0.190834
 H         4.107467         1.284528         3.323341
 H         4.531013        -0.491710         3.029335
 H         5.263228         1.046007         2.149425
 H         1.631103        -0.905880         2.130038
 H         1.308028         0.838369         2.644689
 H        -0.428953        -0.606895        -0.514742
 H        -0.711488         0.588721         0.966087
 H        -0.361120         1.115971        -0.540641
 H         3.938374         2.234845        -0.096323
 H         4.285890        -0.588753        -0.219913
