19
Iteration:   438
 C         4.571360         0.035205         2.290185
 C         3.287658         0.205048         1.446146
 C         1.822799        -0.493633         1.518982
 C         1.336273         0.337841         0.376948
 C        -0.073044         0.055049         0.034255
 O         1.476011         1.663177         0.851726
 C         2.889513         1.619505         1.042488
 C         3.447348         0.672154        -0.026699
 O         2.327128         0.195631        -0.708255
 H         4.425274         0.059979         3.416948
 H         5.011298        -0.914657         2.085903
 H         5.222107         0.823467         2.001496
 H         1.980009        -1.526029         1.127192
 H         1.346832        -0.442904         2.475211
 H        -0.156846        -1.041193         0.077722
 H        -0.703139         0.516609         0.804769
 H        -0.318229         0.482078        -0.931580
 H         3.435718         2.466122         1.513878
 H         4.430782         0.678151        -0.476103
