19
Iteration:  4403
 C         4.342503         0.782197         2.558059
 C         3.233329         0.632087         1.594240
 C         1.756329         0.459702         1.822292
 C         1.273533         0.238035         0.368773
 C        -0.138996         0.262065         0.148254
 O         1.882934         1.553271        -0.156220
 C         3.271599         1.299208         0.235412
 C         3.360449        -0.254068         0.390674
 O         2.129911        -0.727607        -0.103755
 H         4.075203         1.742562         3.051026
 H         4.618210        -0.015771         3.269123
 H         5.279064         1.126847         2.069431
 H         1.674003        -0.538169         2.297215
 H         1.196213         1.168989         2.399159
 H        -0.337906         0.101173        -0.873588
 H        -0.912098        -0.286701         0.672114
 H        -0.420758         1.245784         0.461543
 H         4.114994         1.923906        -0.073139
 H         4.240725        -0.741298         0.038346
