19
Iteration:   473
 C         4.549166        -0.124315         2.273861
 C         3.319485         0.354701         1.487699
 C         2.035854        -0.402407         1.673972
 C         1.307084         0.263059         0.387591
 C        -0.085020         0.002885        -0.022544
 O         1.439049         1.731977         0.703396
 C         2.852157         1.708930         1.064214
 C         3.420095         0.626622         0.047718
 O         2.275974         0.186884        -0.699178
 H         4.326939        -0.205160         3.346028
 H         4.811429        -1.182365         1.877406
 H         5.484399         0.368265         2.220926
 H         2.211341        -1.395167         1.263602
 H         1.558284        -0.583819         2.645582
 H        -0.182567        -0.354733        -1.069209
 H        -0.647639        -0.666844         0.644288
 H        -0.622114         0.974501        -0.121766
 H         3.404315         2.606433         1.255587
 H         4.334959         0.607454        -0.499726
