19
Iteration:  4514
 C         4.307110         0.754922         2.598416
 C         3.205410         0.602793         1.564401
 C         1.753708         0.474259         1.902638
 C         1.292893         0.421451         0.451003
 C        -0.160748         0.276641         0.116608
 O         1.891486         1.513182        -0.179526
 C         3.229059         1.324085         0.242722
 C         3.397601        -0.226324         0.230186
 O         2.159416        -0.811856        -0.055913
 H         4.192801         1.729438         3.141311
 H         4.406658        -0.119594         3.269975
 H         5.253033         0.945249         2.050021
 H         1.622813        -0.521078         2.352326
 H         1.247475         1.324379         2.360960
 H        -0.197903         0.461049        -0.908423
 H        -0.351270        -0.828075         0.240108
 H        -0.639623         1.013331         0.742705
 H         3.938897         2.035787        -0.164491
 H         4.329027        -0.825204        -0.022940
