19
Iteration:  2379
 C         4.307575         0.697619         2.626028
 C         3.214127         0.610320         1.527766
 C         1.725728         0.721047         1.930100
 C         1.349693         0.363812         0.379012
 C        -0.091859         0.165523         0.077025
 O         1.929762         1.558752        -0.231951
 C         3.323908         1.232604         0.165925
 C         3.304890        -0.298872         0.287912
 O         2.057408        -0.737874         0.071078
 H         4.036406         1.378307         3.495022
 H         4.473489        -0.239888         3.114232
 H         5.351825         1.031965         2.380755
 H         1.404162        -0.060964         2.601738
 H         1.307552         1.709577         2.088823
 H        -0.441212        -0.663321         0.728196
 H        -0.611730         1.096628         0.323654
 H        -0.292413        -0.129726        -0.989533
 H         4.080631         1.724267        -0.424622
 H         4.205638        -0.911377        -0.103290
