19
Iteration:  2887charge 0 multiplicity 1
 C         4.308298         0.750305         2.615134
 C         3.204239         0.682963         1.522861
 C         1.756415         0.658337         1.932396
 C         1.324583         0.366263         0.459807
 C        -0.127230         0.151366         0.013586
 O         1.983529         1.572985        -0.228308
 C         3.294903         1.242951         0.120175
 C         3.366957        -0.350676         0.368325
 O         2.031491        -0.769473         0.039772
 H         4.215248         1.703296         3.061284
 H         3.954606        -0.048495         3.293197
 H         5.288183         0.593232         2.179278
 H         1.612684        -0.132450         2.685699
 H         1.442160         1.602238         2.395044
 H        -0.398595        -0.882310        -0.092660
 H        -0.799865         0.546734         0.840741
 H        -0.269476         0.634325        -0.914985
 H         3.946880         2.055560        -0.245191
 H         4.150720        -0.973684        -0.007265
