19
Iteration:    91charge 0 multiplicity 1
 C         4.620878        -0.095144         2.288305
 C         3.478246         0.217059         1.335442
 C         2.168275        -0.681223         1.343442
 C         1.233934         0.374033         0.432774
 C        -0.136755         0.010024        -0.244747
 O         1.350348         1.574471         1.186681
 C         2.808463         1.601199         1.158606
 C         3.454080         0.838192        -0.058024
 O         2.181321         0.458820        -0.616849
 H         4.186409        -0.346977         3.206357
 H         5.070635        -1.100133         1.912977
 H         5.363995         0.622145         2.438614
 H         2.309039        -1.650088         0.760512
 H         1.845880        -0.783135         2.366822
 H        -0.158527         0.489757        -1.196074
 H        -0.334573        -1.055428        -0.317300
 H        -0.913820         0.393806         0.377831
 H         3.220933         2.557526         1.583655
 H         4.279382         1.194866        -0.723441
