19
Iteration:  2555charge 0 multiplicity 1
 C         4.338257         0.611520         2.598577
 C         3.199173         0.661546         1.560070
 C         1.685269         0.641274         1.792350
 C         1.262595         0.431411         0.402576
 C        -0.088390         0.289209         0.110666
 O         1.899317         1.478976        -0.307915
 C         3.275351         1.293081         0.139545
 C         3.365252        -0.239494         0.437004
 O         2.167296        -0.815639         0.086998
 H         4.088636         1.315244         3.431670
 H         4.584074        -0.262493         3.125382
 H         5.317561         0.985776         2.245675
 H         1.562336        -0.235573         2.412657
 H         1.303390         1.511361         2.313686
 H        -0.668594        -0.049830         0.985965
 H        -0.710654         1.188536        -0.153593
 H        -0.135171        -0.373171        -0.731166
 H         3.814539         1.976574        -0.447808
 H         4.247746        -0.961658         0.425331
