19
Iteration:  1802
 C         4.367240         0.541935         2.582511
 C         3.245763         0.493340         1.525711
 C         1.786075         0.242839         1.979978
 C         1.264615         0.384121         0.480276
 C        -0.178923         0.219974         0.051399
 O         1.794785         1.664904        -0.016658
 C         3.168738         1.407940         0.350795
 C         3.451671        -0.060856         0.188960
 O         2.219843        -0.587390        -0.286378
 H         4.099919         1.205688         3.370764
 H         4.394576        -0.437451         3.116207
 H         5.410843         0.652104         2.104136
 H         1.540697        -0.811638         2.307739
 H         1.409194         0.997101         2.705554
 H        -0.502655        -0.791609        -0.118092
 H        -0.840840         0.407683         0.908998
 H        -0.359618         0.849194        -0.782239
 H         3.832247         2.223354         0.085159
 H         4.438309        -0.301552        -0.203068
