19
Iteration:  4579charge 0 multiplicity 1
 C         4.368450         0.765220         2.526120
 C         3.233595         0.535612         1.552295
 C         1.654569         0.489097         1.862943
 C         1.290189         0.354413         0.427082
 C        -0.166572         0.121627         0.139965
 O         1.979117         1.650317        -0.177977
 C         3.285702         1.268389         0.268060
 C         3.403773        -0.280134         0.314647
 O         2.081776        -0.660067        -0.075350
 H         3.803216         1.275327         3.329432
 H         4.969046         0.013921         3.035322
 H         4.998414         1.549842         2.107398
 H         1.430331        -0.374726         2.584063
 H         1.306081         1.434179         2.358388
 H        -0.450456         0.239244        -0.900783
 H        -0.518465        -0.943583         0.451750
 H        -0.702180         0.975874         0.611902
 H         4.031901         1.951276        -0.035072
 H         4.243094        -1.040377        -0.019804
