19
Iteration:   984charge 0 multiplicity 1
 C         4.449244         0.073274         2.387137
 C         3.305586         0.360086         1.564642
 C         1.890323        -0.203528         1.719591
 C         1.316338         0.312393         0.442953
 C        -0.162878         0.104855         0.062739
 O         1.577877         1.713988         0.425519
 C         2.973761         1.734422         0.715314
 C         3.432659         0.406428         0.087886
 O         2.329250        -0.186917        -0.543472
 H         4.205206         0.262037         3.540460
 H         4.754632        -0.969623         2.276271
 H         5.339660         0.594459         2.068684
 H         1.712011        -1.277352         1.797297
 H         1.607329         0.337508         2.699062
 H        -0.728567         1.081850         0.180840
 H        -0.189893        -0.249143        -1.003331
 H        -0.605566        -0.734508         0.598508
 H         3.471474         2.673317         0.925704
 H         4.372922         0.397666        -0.388875
