19
Iteration:  2801charge 0 multiplicity 1
 C         4.274039         0.943353         2.584625
 C         3.215761         0.537995         1.554292
 C         1.763823         0.528685         1.938845
 C         1.284630         0.435177         0.497026
 C        -0.122307         0.210348         0.015036
 O         2.001930         1.576953        -0.255311
 C         3.374732         1.154360         0.178233
 C         3.320278        -0.406324         0.273722
 O         1.993003        -0.731662         0.032633
 H         4.120456         1.902899         3.062613
 H         4.305252         0.274128         3.480518
 H         5.336483         1.031890         2.373162
 H         1.423237        -0.306979         2.601730
 H         1.643966         1.503987         2.480411
 H        -0.226663        -0.772987        -0.435214
 H        -0.927136         0.346731         0.844484
 H        -0.371416         0.932861        -0.757866
 H         4.139824         1.780971        -0.231236
 H         4.222462        -1.091452         0.205305
