19
Iteration:  1640
 C         4.319591         0.477867         2.611207
 C         3.269857         0.541266         1.586631
 C         1.794369         0.192334         1.847537
 C         1.338112         0.329005         0.427024
 C        -0.161606         0.177694         0.065444
 O         1.779702         1.654584         0.169184
 C         3.221449         1.495939         0.431801
 C         3.415010         0.039760         0.023662
 O         2.141626        -0.568241        -0.354336
 H         4.035587         0.863440         3.592002
 H         4.476634        -0.627713         2.811966
 H         5.305679         0.903796         2.235437
 H         1.768951        -0.772996         2.352429
 H         1.404865         0.959960         2.533253
 H        -0.519836         1.126968        -0.429250
 H        -0.247030        -0.758898        -0.573822
 H        -0.643240        -0.078832         0.991317
 H         3.883215         2.372639         0.382578
 H         4.347280        -0.428445        -0.290032
