19
Iteration:  1019
 C         0.203428        -0.579928        -0.583631
 C         1.529119        -0.084358        -0.210182
 C         2.456935         0.741991        -1.064676
 C         3.550665         0.910767        -0.045787
 C         2.838548         1.006305         1.319512
 O         1.469447         0.809408         0.970241
 C         3.497307        -0.238099         0.974952
 O         4.577811        -0.768276         1.516149
 C         2.552566        -1.163547         0.220102
 H        -0.609686        -0.709589         0.067168
 H        -0.269461        -0.118448        -1.507801
 H         0.482999        -1.559322        -1.201015
 H         2.783315         0.229259        -1.913442
 H         2.052046         1.796771        -1.395751
 H         4.491699         1.199813        -0.195203
 H         3.041573         1.694520         2.205179
 H         4.443574        -1.720391         1.613715
 H         2.848163        -1.608291        -0.768027
 H         1.977127        -1.724968         0.922837
