19
Iteration:  4590charge 0 multiplicity 1
 C         0.108907        -0.379741        -0.725623
 C         1.600903        -0.117666        -0.290401
 C         2.580289         0.838788        -1.123222
 C         3.531352         1.062666         0.098908
 C         2.672538         0.943814         1.343010
 O         1.386749         0.565865         0.975403
 C         3.508216        -0.311981         0.903649
 O         4.681868        -0.755365         1.620255
 C         2.571922        -1.246008         0.200777
 H        -0.200276        -0.618292        -1.756010
 H        -0.332071        -1.071160        -0.010817
 H        -0.258526         0.601625        -0.455192
 H         3.170024         0.315095        -2.010009
 H         2.293281         1.742431        -1.571773
 H         4.448150         1.727946        -0.183440
 H         2.825635         1.389576         2.374707
 H         4.485419        -1.580987         2.019757
 H         3.154223        -1.738465        -0.556885
 H         1.965182        -1.971887         0.664098
