19
Iteration:  1248
 C         0.148666        -0.374554        -0.766708
 C         1.513870        -0.113845        -0.125161
 C         2.490343         0.665074        -1.118104
 C         3.527768         0.931899        -0.012173
 C         2.779543         0.984164         1.292734
 O         1.363844         0.723031         1.051402
 C         3.498967        -0.320053         0.933101
 O         4.763391        -0.726618         1.566041
 C         2.508891        -1.215893         0.321753
 H        -0.638538        -0.674517        -0.082355
 H        -0.293483         0.532480        -1.357746
 H         0.270476        -1.269436        -1.434552
 H         2.828020        -0.010733        -1.944294
 H         2.150396         1.623332        -1.599093
 H         4.486236         1.550915        -0.015098
 H         3.040854         1.781821         1.991942
 H         5.306165        -1.137527         0.859441
 H         2.720654        -1.797047        -0.629823
 H         2.013843        -1.977077         0.970014
