19
Iteration:   655
 C         0.174954        -0.277872        -0.772643
 C         1.508034        -0.190059        -0.188887
 C         2.448147         0.571803        -1.046926
 C         3.557478         0.847989        -0.033572
 C         2.786039         0.893415         1.241083
 O         1.436228         0.793530         0.961004
 C         3.495735        -0.341480         0.919042
 O         4.802532        -0.588028         1.534940
 C         2.446617        -1.304144         0.379961
 H        -0.533171        -0.877200        -0.117845
 H        -0.290569         0.778458        -0.756011
 H         0.154676        -0.719527        -1.730291
 H         2.924387         0.192252        -2.056307
 H         1.935054         1.527322        -1.337653
 H         4.362056         1.644518        -0.300655
 H         2.925059         1.466169         2.155583
 H         4.651032        -0.707389         2.500871
 H         2.762830        -1.907184        -0.486234
 H         1.831236        -1.838472         1.141892
