19
Iteration:  3137
 C         0.216292        -0.497033        -0.936862
 C         1.545727        -0.058867        -0.236820
 C         2.569700         0.965962        -1.015582
 C         3.517500         1.018128         0.148323
 C         2.690801         0.877624         1.359287
 O         1.352066         0.581589         1.020146
 C         3.538487        -0.261892         0.893292
 O         4.728587        -0.798016         1.478588
 C         2.489244        -1.225481         0.309547
 H        -0.392151         0.362967        -1.164787
 H         0.447259        -0.999748        -1.937729
 H        -0.325761        -1.103939        -0.243353
 H         3.040169         0.507925        -1.823332
 H         2.071015         1.989779        -1.314714
 H         4.494548         1.467172        -0.099741
 H         2.762344         1.389198         2.289190
 H         4.601383        -1.009166         2.397789
 H         2.869927        -1.938385        -0.492950
 H         1.867220        -1.782936         1.083126
