19
Iteration:  2350charge 0 multiplicity 1
 C         0.231182        -0.624859        -0.845735
 C         1.571605        -0.081519        -0.231874
 C         2.457604         0.849580        -1.041323
 C         3.503692         1.032825         0.094558
 C         2.743814         0.874154         1.346237
 O         1.345469         0.819534         0.996777
 C         3.577598        -0.242872         0.883467
 O         4.647284        -0.822553         1.592951
 C         2.575463        -1.180653         0.274213
 H        -0.505522         0.110089        -0.646220
 H         0.322087        -0.630125        -1.902179
 H        -0.172418        -1.585863        -0.506216
 H         3.002126         0.303079        -1.791376
 H         1.819569         1.785319        -1.263883
 H         4.352489         1.603063        -0.030772
 H         2.893918         1.375247         2.318803
 H         4.678847        -1.777323         1.215047
 H         3.202398        -1.434918        -0.577904
 H         2.127069        -1.967888         0.930010
