19
Iteration:  4155charge 0 multiplicity 1
 C         0.176026        -0.388871        -0.817558
 C         1.595556        -0.070186        -0.318251
 C         2.496340         0.973188        -0.923505
 C         3.515299         1.066006         0.217677
 C         2.606071         0.809490         1.401309
 O         1.330948         0.425882         1.044215
 C         3.612040        -0.323342         0.869727
 O         4.748237        -0.717803         1.485049
 C         2.586095        -1.197396         0.031632
 H        -0.394309         0.508658        -1.028815
 H         0.041980        -1.091348        -1.628943
 H        -0.336687        -0.782758         0.130299
 H         3.068460         0.582453        -1.702223
 H         2.061765         2.002819        -1.188377
 H         4.404661         1.771195         0.262143
 H         2.594338         1.407067         2.276659
 H         4.481815        -1.418207         2.070803
 H         3.140010        -1.493218        -0.850948
 H         2.162753        -2.006598         0.585050
