19
Iteration:  2684
 C         0.175174        -0.322737        -0.894975
 C         1.565918        -0.055767        -0.312775
 C         2.502034         0.798289        -1.099648
 C         3.499000         1.030032         0.076528
 C         2.705100         0.805400         1.374733
 O         1.367477         0.529133         1.074596
 C         3.561512        -0.337067         0.910587
 O         4.764559        -0.631558         1.587371
 C         2.484016        -1.248443         0.234364
 H        -0.270376         0.675379        -1.206408
 H         0.221424        -0.906772        -1.726545
 H        -0.460684        -0.907600        -0.315407
 H         3.094704         0.127876        -1.835562
 H         2.035919         1.629610        -1.607839
 H         4.520094         1.651392         0.180757
 H         2.859321         1.302136         2.341224
 H         4.535197        -0.823233         2.502016
 H         2.856081        -1.962414        -0.576595
 H         2.122341        -1.940756         1.115731
