19
Iteration:   996charge 0 multiplicity 1
 C         0.212950        -0.542654        -0.703340
 C         1.477072        -0.100582        -0.168503
 C         2.502649         0.786511        -1.095146
 C         3.613690         1.029575        -0.100417
 C         2.789129         0.978300         1.226981
 O         1.355343         0.794574         1.056742
 C         3.586647        -0.282021         0.855584
 O         4.704546        -0.861595         1.520732
 C         2.473372        -1.189098         0.389064
 H        -0.518085        -0.523274         0.077818
 H        -0.289443        -0.000496        -1.494535
 H         0.252996        -1.625153        -1.208895
 H         2.946589         0.253622        -1.957377
 H         1.960082         1.706969        -1.472045
 H         4.332908         1.759012        -0.041619
 H         2.818218         1.592697         2.126508
 H         4.381822        -1.568515         2.083542
 H         2.882053        -1.803613        -0.488974
 H         1.952698        -1.630655         1.212915
