19
Iteration:  2974
 C         0.149435        -0.326593        -0.863498
 C         1.570542        -0.144968        -0.231493
 C         2.591210         0.819761        -0.994975
 C         3.563974         1.044430         0.168565
 C         2.675681         0.786426         1.399656
 O         1.326615         0.610214         1.021960
 C         3.539708        -0.314166         0.805089
 O         4.672594        -0.600407         1.497692
 C         2.571792        -1.310697         0.197240
 H         0.109508         0.408620        -1.686716
 H         0.109320        -1.355163        -1.349650
 H        -0.549324        -0.009666        -0.183009
 H         2.999666         0.186202        -1.720853
 H         2.029018         1.655158        -1.479872
 H         4.418283         1.625015        -0.020933
 H         2.973383         1.047090         2.446684
 H         4.425721        -1.092217         2.289505
 H         3.000838        -2.113503        -0.482789
 H         2.085205        -1.910967         1.032868
