19
Iteration:  2348charge 0 multiplicity 1
 C         0.242889        -0.624411        -0.842002
 C         1.578951        -0.082123        -0.223370
 C         2.462238         0.847740        -1.026880
 C         3.502663         1.030848         0.090438
 C         2.744539         0.882100         1.342794
 O         1.346101         0.812231         0.995667
 C         3.584413        -0.243126         0.867716
 O         4.634573        -0.824152         1.602575
 C         2.565195        -1.187499         0.268497
 H        -0.564049         0.124878        -0.662812
 H         0.309251        -0.668917        -1.888992
 H        -0.158194        -1.514053        -0.484725
 H         2.982108         0.365862        -1.803264
 H         1.780247         1.761882        -1.295233
 H         4.417581         1.660143        -0.033377
 H         2.888750         1.380635         2.305111
 H         4.703017        -1.707594         1.162317
 H         3.185697        -1.449162        -0.604756
 H         2.130409        -1.994399         0.943907
