19
Iteration:   949charge 0 multiplicity 1
 C         0.187016        -0.368656        -0.737691
 C         1.494551        -0.102855        -0.112752
 C         2.605038         0.684954        -1.124214
 C         3.558810         0.839894         0.002582
 C         2.761801         0.987100         1.264129
 O         1.374243         0.728646         1.052537
 C         3.397543        -0.349853         0.955348
 O         4.763340        -0.626821         1.423009
 C         2.452056        -1.337629         0.334016
 H        -0.638313        -0.879739        -0.142844
 H        -0.276385         0.576180        -0.892182
 H         0.255043        -0.766040        -1.741300
 H         2.717416        -0.033447        -2.102965
 H         2.204602         1.612027        -1.385242
 H         4.592146         1.364000        -0.242516
 H         3.179978         1.664267         1.991646
 H         4.961324        -0.488410         2.340547
 H         2.998017        -1.743316        -0.547449
 H         1.860404        -1.927632         1.066111
