19
Iteration:  3787charge 0 multiplicity 1
 C         0.231156        -0.336963        -0.939332
 C         1.579832        -0.119440        -0.218936
 C         2.501556         0.840423        -0.950536
 C         3.509045         1.064647         0.116862
 C         2.642323         0.835771         1.385728
 O         1.329145         0.595498         1.125903
 C         3.550623        -0.353562         0.849441
 O         4.761045        -0.670558         1.504894
 C         2.553633        -1.258669         0.155337
 H        -0.478683         0.408712        -0.607990
 H         0.419548        -0.548953        -1.984935
 H        -0.333405        -1.313495        -0.731818
 H         2.985911         0.279159        -1.830707
 H         2.096598         1.747825        -1.256671
 H         4.460573         1.751583         0.057406
 H         2.867091         1.195197         2.330414
 H         4.383976        -1.313063         2.200710
 H         2.837037        -1.757890        -0.770443
 H         2.040969        -2.067634         0.652392
