19
Iteration:  3102charge 0 multiplicity 1
 C         0.226705        -0.290011        -0.898061
 C         1.519006        -0.136869        -0.204594
 C         2.494123         0.774546        -1.032614
 C         3.467823         1.004482         0.088386
 C         2.680196         0.793874         1.399040
 O         1.376306         0.660706         1.018338
 C         3.530713        -0.386722         0.908813
 O         4.728315        -0.616504         1.545919
 C         2.586306        -1.316138         0.218700
 H        -0.336543         0.540831        -0.621631
 H         0.363987        -0.168457        -2.010597
 H        -0.344218        -1.260724        -0.768427
 H         3.035594         0.265103        -1.835298
 H         2.075601         1.774734        -1.476606
 H         4.364800         1.463975        -0.029401
 H         2.880210         1.332288         2.374624
 H         4.499487        -0.904693         2.443356
 H         3.032535        -1.683916        -0.721111
 H         2.233304        -2.141466         0.793187
