19
Iteration:  1211
 C         0.164929        -0.383292        -0.685906
 C         1.571134        -0.166794        -0.224632
 C         2.486706         0.839608        -1.086543
 C         3.598191         0.921320        -0.080370
 C         2.788760         0.859006         1.298629
 O         1.392772         0.674249         1.010286
 C         3.576503        -0.346391         0.822513
 O         4.593292        -0.610083         1.586512
 C         2.490340        -1.249165         0.358803
 H        -0.550148        -0.217317         0.171860
 H         0.004936         0.323889        -1.439602
 H         0.014412        -1.407269        -1.273079
 H         2.678467         0.388514        -2.150114
 H         1.903953         1.680238        -1.205815
 H         4.483500         1.493179        -0.026438
 H         3.227698         1.284581         2.208312
 H         5.144441        -1.421824         1.338052
 H         2.550602        -2.033717        -0.434280
 H         2.182949        -1.560463         1.362321
