19
Iteration:  3602
 C         0.231247        -0.458592        -0.783945
 C         1.577537        -0.069379        -0.252234
 C         2.482085         0.886755        -0.925514
 C         3.546341         1.044146         0.124528
 C         2.752631         0.790025         1.356367
 O         1.334342         0.629398         0.941425
 C         3.539250        -0.293258         0.831401
 O         4.660731        -0.792978         1.564420
 C         2.578146        -1.177082         0.139447
 H        -0.214353         0.460968        -1.136649
 H         0.229176        -1.281099        -1.596735
 H        -0.450607        -0.934904         0.000264
 H         2.918917         0.800589        -2.029327
 H         1.828121         1.712056        -1.086713
 H         4.246662         1.753764         0.071762
 H         3.070013         1.445075         2.220476
 H         4.303792        -1.093268         2.480035
 H         3.027257        -1.694491        -0.716065
 H         2.173315        -1.982823         0.744560
