19
Iteration:  1369
 C         0.097656        -0.354564        -0.715382
 C         1.500874        -0.112715        -0.162460
 C         2.525832         0.728552        -1.109618
 C         3.569302         0.850618        -0.081373
 C         2.752849         0.921537         1.320677
 O         1.416842         0.677651         0.957250
 C         3.571906        -0.306841         0.869905
 O         4.768701        -0.652859         1.507532
 C         2.480581        -1.224665         0.388539
 H        -0.519579        -0.898096         0.072587
 H        -0.514638         0.643653        -0.839460
 H         0.089994        -0.841413        -1.647887
 H         2.825130         0.170755        -1.980058
 H         2.124705         1.715057        -1.430706
 H         4.367465         1.510617        -0.181935
 H         2.904092         1.538467         2.213257
 H         4.488768        -1.292185         2.246894
 H         2.931171        -1.970102        -0.306841
 H         1.893144        -1.751196         1.216420
