19
Iteration:  3905charge 0 multiplicity 1
 C         0.169295        -0.330811        -0.864405
 C         1.605212        -0.141828        -0.316906
 C         2.474892         0.945804        -0.974290
 C         3.553019         1.062828         0.104338
 C         2.721505         0.821099         1.405807
 O         1.317132         0.443169         1.069475
 C         3.593272        -0.319151         0.850875
 O         4.682487        -0.697150         1.577766
 C         2.598482        -1.178826         0.091994
 H        -0.216139         0.663345        -1.039241
 H         0.213666        -1.205503        -1.510642
 H        -0.333054        -0.701314         0.122281
 H         2.584853         0.556420        -2.009023
 H         1.719513         1.876739        -1.070026
 H         4.354233         1.867348         0.035798
 H         3.048063         1.180585         2.355710
 H         4.413973        -1.474729         2.117289
 H         3.116946        -1.761014        -0.711852
 H         2.057488        -2.007599         0.712370
