19
Iteration:  4582
 C         0.143572        -0.357431        -0.712316
 C         1.623689        -0.106927        -0.364590
 C         2.641175         0.783658        -1.043035
 C         3.512591         0.965069         0.121954
 C         2.702497         0.911336         1.335986
 O         1.316962         0.608253         1.017348
 C         3.563475        -0.307162         0.867902
 O         4.663844        -0.714579         1.579538
 C         2.550912        -1.211321         0.159399
 H        -0.159860        -0.528514        -1.729261
 H        -0.286914        -1.256337        -0.182747
 H        -0.404320         0.433578        -0.210970
 H         3.139249         0.336973        -1.853673
 H         2.101808         1.622337        -1.561192
 H         4.346669         1.727873         0.078366
 H         2.815609         1.625041         2.122777
 H         4.406264        -1.410276         2.161990
 H         3.064807        -1.826491        -0.646023
 H         1.969915        -1.906212         0.813769
