19
Iteration:   535
 C         0.098662        -0.270918        -0.826309
 C         1.505752        -0.230695        -0.146857
 C         2.507054         0.540432        -1.113989
 C         3.510090         0.956666        -0.041603
 C         2.823531         0.926479         1.248966
 O         1.424595         0.778625         1.019700
 C         3.595129        -0.262775         0.868553
 O         4.694362        -0.675889         1.538634
 C         2.495406        -1.311868         0.437805
 H        -0.686116        -0.751208        -0.221227
 H        -0.169696         0.874836        -0.741359
 H         0.030734        -0.590406        -1.822017
 H         3.110183        -0.063893        -1.903193
 H         1.915410         1.333123        -1.632185
 H         4.385973         1.560609        -0.286164
 H         3.005968         1.634985         2.021161
 H         4.631796        -0.774719         2.492562
 H         2.866816        -1.928850        -0.384694
 H         2.119716        -1.863914         1.352046
