19
Iteration:  3430
 C         0.266677        -0.556553        -0.822465
 C         1.609194        -0.017970        -0.261505
 C         2.557457         0.932817        -0.985625
 C         3.520099         1.070177         0.186789
 C         2.677643         0.842138         1.382735
 O         1.324427         0.659743         0.963709
 C         3.527396        -0.263154         0.914320
 O         4.667542        -0.924962         1.399209
 C         2.511235        -1.126991         0.264125
 H        -0.114613         0.090725        -1.601204
 H         0.374942        -1.589119        -1.367565
 H        -0.571216        -0.684798        -0.208774
 H         3.040016         0.412226        -1.780825
 H         1.965892         1.769955        -1.330126
 H         4.340006         1.720880         0.224452
 H         2.680215         1.303966         2.347447
 H         4.973273        -0.654485         2.263058
 H         2.975103        -1.714891        -0.576268
 H         1.965230        -1.736193         1.006053
