19
Iteration:   853charge 0 multiplicity 1
 C         0.137506        -0.563011        -0.683885
 C         1.505335        -0.038658        -0.176826
 C         2.522811         0.698108        -1.041199
 C         3.541648         1.032053        -0.007575
 C         2.827554         0.914803         1.290148
 O         1.457248         0.920829         0.951742
 C         3.502713        -0.290197         0.857385
 O         4.718318        -0.792693         1.507300
 C         2.437670        -1.261053         0.311172
 H        -0.432144        -1.078471         0.197443
 H        -0.564058         0.155535        -1.077476
 H         0.324479        -1.389433        -1.543243
 H         2.865674         0.044289        -1.886722
 H         2.057130         1.612553        -1.480100
 H         4.588727         1.454726        -0.136146
 H         2.849588         1.551318         2.180492
 H         4.536045        -1.397872         2.202564
 H         2.846239        -1.876926        -0.600512
 H         1.960081        -1.772849         1.133167
