19
Iteration:   386charge 0 multiplicity 1
 C         0.027492        -0.291491        -0.774091
 C         1.488565        -0.102843        -0.152281
 C         2.570496         0.651283        -1.079232
 C         3.639686         0.788314        -0.041003
 C         2.846284         0.895051         1.313081
 O         1.431571         0.705830         0.974867
 C         3.467773        -0.373010         0.937363
 O         4.811672        -0.477073         1.509286
 C         2.345951        -1.323155         0.354445
 H        -0.737866        -0.065600         0.016771
 H        -0.046914         0.272342        -1.652235
 H        -0.069709        -1.341340        -1.120281
 H         2.858325         0.017340        -1.877985
 H         2.173675         1.606778        -1.612555
 H         4.575154         1.169256        -0.283639
 H         2.963828         1.535415         2.167884
 H         4.845243        -0.727301         2.495432
 H         2.699380        -1.837601        -0.554580
 H         1.756830        -1.969658         0.904071
