19
Iteration:  3706
 C         0.289776        -0.567454        -0.956544
 C         1.555983        -0.036865        -0.274511
 C         2.497674         0.948927        -1.053150
 C         3.507452         1.067369         0.112241
 C         2.735530         0.917140         1.470412
 O         1.291538         0.614731         1.186277
 C         3.516343        -0.329298         0.877519
 O         4.673032        -0.890242         1.423363
 C         2.525074        -1.144993         0.212153
 H        -0.255652         0.287432        -1.352187
 H         0.735111        -1.080295        -1.725614
 H        -0.091884        -1.105596        -0.155639
 H         2.954244         0.445484        -1.861106
 H         2.156801         2.014971        -1.426537
 H         4.375167         1.690504        -0.014859
 H         3.001421         1.521148         2.369518
 H         4.687836        -0.889879         2.413217
 H         2.983623        -1.649782        -0.667776
 H         2.015999        -1.846831         0.939607
