19
Iteration:  4297charge 0 multiplicity 1
 C         0.224538        -0.354746        -0.868011
 C         1.519216        -0.124980        -0.238257
 C         2.472627         0.948625        -0.915812
 C         3.515103         1.121017         0.053988
 C         2.720876         0.773509         1.314047
 O         1.328002         0.514595         1.005315
 C         3.538452        -0.348372         0.863824
 O         4.718364        -0.700147         1.630159
 C         2.579790        -1.226386         0.160412
 H        -0.154675        -1.184776        -0.274052
 H        -0.349842         0.513921        -0.818642
 H         0.354502        -0.709466        -1.895577
 H         2.898445         0.649162        -1.857997
 H         1.767274         1.901215        -1.029756
 H         4.552047         1.645095         0.020285
 H         2.832319         1.176916         2.328999
 H         4.754657        -1.639975         1.552123
 H         3.063573        -1.744490        -0.660175
 H         2.227954        -1.860045         0.956997
