19
Iteration:  2955charge 0 multiplicity 1
 C         0.222574        -0.275249        -0.822366
 C         1.541284        -0.133861        -0.237499
 C         2.514771         0.761998        -1.024676
 C         3.502917         0.956638         0.125418
 C         2.670810         0.821707         1.380889
 O         1.336438         0.611556         0.986712
 C         3.562736        -0.344699         0.934998
 O         4.743832        -0.593152         1.566394
 C         2.554553        -1.288209         0.129064
 H        -0.037666         0.434405        -1.729842
 H         0.019961        -1.252137        -1.319937
 H        -0.488977        -0.072487        -0.018396
 H         2.978446         0.181806        -1.974492
 H         2.032822         1.701864        -1.249211
 H         4.344601         1.509333         0.108564
 H         2.732470         1.448451         2.298211
 H         4.589117        -1.270006         2.284518
 H         2.988850        -1.540846        -0.788535
 H         2.259843        -2.170538         0.640843
