19
Iteration:  4819charge 0 multiplicity 1
 C         0.244586        -0.402603        -0.971777
 C         1.518196        -0.118127        -0.201432
 C         2.507720         0.845394        -0.956711
 C         3.506161         1.071942         0.150046
 C         2.733823         0.831794         1.395337
 O         1.391541         0.665968         1.020411
 C         3.509808        -0.341662         0.971873
 O         4.815700        -0.736216         1.350266
 C         2.413969        -1.258195         0.304556
 H        -0.499275        -0.395052        -0.186459
 H        -0.028261         0.343143        -1.747314
 H         0.245986        -1.328467        -1.473131
 H         2.947908         0.427174        -1.957312
 H         1.921215         1.697280        -1.233066
 H         4.318875         1.728132         0.286822
 H         2.755113         1.336248         2.406095
 H         4.776297        -1.232501         2.178187
 H         2.740721        -1.843850        -0.561702
 H         1.838671        -1.906748         0.979883
