19
Iteration:  4157
 C         0.183864        -0.368966        -0.805616
 C         1.589756        -0.084513        -0.321275
 C         2.498275         0.961239        -0.929873
 C         3.495603         1.078137         0.210980
 C         2.608331         0.798425         1.421668
 O         1.336449         0.427204         1.041781
 C         3.612000        -0.319354         0.857427
 O         4.754075        -0.718808         1.501267
 C         2.588253        -1.189173         0.018345
 H        -0.457771         0.556658        -0.983801
 H         0.080413        -1.118319        -1.667287
 H        -0.382781        -0.834508         0.087772
 H         3.044806         0.574541        -1.727843
 H         2.060957         1.990459        -1.193326
 H         4.489341         1.737646         0.206444
 H         2.586641         1.438784         2.296923
 H         4.463072        -1.376306         2.114469
 H         3.155822        -1.515874        -0.900250
 H         2.139516        -2.060347         0.585481
