19
Iteration:  1791
 C         0.199911        -0.453942        -0.717152
 C         1.542903        -0.113301        -0.220199
 C         2.465380         0.853233        -1.110491
 C         3.524085         1.070845        -0.044607
 C         2.737001         0.880561         1.260178
 O         1.376472         0.694373         1.016423
 C         3.619083        -0.293275         0.869604
 O         4.628253        -0.869872         1.616581
 C         2.517653        -1.232611         0.349469
 H        -0.145809        -1.485132        -0.381233
 H        -0.544990         0.295775        -0.272012
 H         0.350989        -0.379978        -1.739219
 H         2.934873         0.435241        -2.110168
 H         1.914729         1.789057        -1.377491
 H         4.328990         1.681175        -0.177542
 H         3.001804         1.437026         2.148534
 H         5.440108        -0.557788         1.272065
 H         2.813110        -1.962758        -0.430184
 H         2.091424        -1.745217         1.230750
