19
Iteration:  3516
 C         0.138758        -0.369694        -0.891165
 C         1.580479        -0.088626        -0.284041
 C         2.556348         0.817084        -1.023083
 C         3.572382         0.938215         0.106802
 C         2.622536         0.879438         1.453962
 O         1.373415         0.550421         0.977080
 C         3.537474        -0.296453         0.998368
 O         4.758657        -0.689115         1.457528
 C         2.499447        -1.204850         0.236449
 H        -0.412883         0.461038        -0.564144
 H         0.245710        -0.208455        -2.007350
 H        -0.209633        -1.257685        -0.494358
 H         2.994381         0.354327        -1.995704
 H         2.039848         1.760186        -1.213856
 H         4.302855         1.604352         0.188406
 H         2.712576         1.648571         2.238422
 H         4.598859        -1.236369         2.219920
 H         3.043503        -1.837025        -0.556288
 H         2.023389        -1.932085         0.989439
