19
Iteration:  3909
 C         0.197174        -0.341435        -0.835155
 C         1.600988        -0.100467        -0.331845
 C         2.468109         0.942099        -0.946499
 C         3.567125         1.080477         0.118352
 C         2.708630         0.815345         1.412837
 O         1.300286         0.471559         1.065951
 C         3.602491        -0.325273         0.830086
 O         4.687955        -0.687691         1.558670
 C         2.588171        -1.244491         0.121597
 H        -0.240018         0.664147        -1.127529
 H         0.053488        -1.085842        -1.732371
 H        -0.341332        -0.758432        -0.006517
 H         2.611739         0.506643        -2.058145
 H         1.807130         1.775012        -1.147559
 H         4.237654         1.837743        -0.008913
 H         3.023454         1.160815         2.468543
 H         4.499213        -1.472229         2.082761
 H         3.125621        -1.813984        -0.651179
 H         2.160498        -2.028799         0.685133
