19
Iteration:  1357
 C         0.108202        -0.361106        -0.697400
 C         1.509436        -0.063197        -0.230586
 C         2.482031         0.626043        -1.128419
 C         3.534243         0.985494        -0.014252
 C         2.788476         0.849863         1.275653
 O         1.407247         0.724995         1.050627
 C         3.604204        -0.269518         0.820417
 O         4.743729        -0.697263         1.554658
 C         2.482981        -1.227988         0.319750
 H        -0.329412        -1.199186        -0.112611
 H        -0.522547         0.637576        -0.663493
 H         0.151199        -0.733067        -1.700829
 H         2.949075        -0.185841        -1.728363
 H         2.195803         1.441553        -1.740731
 H         4.380926         1.527992        -0.209218
 H         3.142917         1.438558         2.146954
 H         4.422190        -0.928236         2.412965
 H         2.496003        -1.897824        -0.558883
 H         2.126802        -1.771484         1.253867
