19
Iteration:  1110
 C         0.097641        -0.401155        -0.848799
 C         1.463318        -0.078243        -0.091324
 C         2.458607         0.599023        -1.068557
 C         3.608007         0.879580        -0.062723
 C         2.774479         0.961269         1.340584
 O         1.364612         0.815123         0.973849
 C         3.576991        -0.334770         0.884807
 O         4.782916        -0.772932         1.568416
 C         2.457148        -1.204981         0.396992
 H        -0.307508        -1.352050        -0.331858
 H        -0.693683         0.401858        -0.630173
 H         0.294943        -0.479146        -1.874664
 H         2.905738         0.074295        -1.858619
 H         2.113200         1.569671        -1.507366
 H         4.531978         1.608016        -0.181851
 H         2.920565         1.603945         2.182325
 H         5.417913        -0.209321         1.154547
 H         2.729330        -1.783302        -0.454876
 H         2.029631        -1.917005         1.149992
