19
Iteration:  1028
 C         0.182169        -0.564112        -0.605422
 C         1.514939        -0.056723        -0.165129
 C         2.445960         0.767240        -1.102713
 C         3.595710         0.912239        -0.043047
 C         2.812462         0.941210         1.310230
 O         1.445994         0.863509         0.937816
 C         3.444029        -0.310179         0.904158
 O         4.650956        -0.752007         1.574979
 C         2.535247        -1.166590         0.241860
 H        -0.444488        -0.821787         0.231159
 H        -0.272478         0.117745        -1.289188
 H         0.378998        -1.629955        -1.057687
 H         2.925099         0.237973        -2.012555
 H         1.931891         1.703847        -1.427984
 H         4.491641         1.382703        -0.194983
 H         2.845828         1.519650         2.235963
 H         4.633875        -1.713258         1.568365
 H         3.132102        -1.659515        -0.623284
 H         1.998503        -1.940393         0.817042
