19
Iteration:  3637charge 0 multiplicity 1
 C         0.111370        -0.351619        -0.840662
 C         1.591129        -0.041094        -0.250576
 C         2.560153         0.815635        -1.027294
 C         3.514853         1.034089         0.136719
 C         2.709857         0.813748         1.400315
 O         1.314705         0.475920         1.024130
 C         3.554337        -0.319624         0.955604
 O         4.747422        -0.641743         1.528955
 C         2.527410        -1.189508         0.118103
 H        -0.172208         0.385258        -1.594869
 H         0.202769        -1.351170        -1.367571
 H        -0.509502        -0.304504        -0.016491
 H         3.217246         0.195290        -1.734799
 H         2.149106         1.783475        -1.427082
 H         4.444953         1.723863         0.108466
 H         2.835892         1.405053         2.330019
 H         4.522219        -1.554740         1.962174
 H         3.006483        -1.570680        -0.828585
 H         2.016892        -1.955238         0.744751
