19
Iteration:  2918charge 0 multiplicity 1
 C         0.267340        -0.507701        -0.879989
 C         1.559593        -0.064019        -0.228954
 C         2.515203         0.895102        -0.984462
 C         3.561598         1.037576         0.139940
 C         2.708861         0.872186         1.361851
 O         1.341106         0.656468         0.981530
 C         3.580877        -0.297765         0.793647
 O         4.653453        -0.801036         1.518277
 C         2.496055        -1.191334         0.280923
 H        -0.181172         0.289678        -1.377372
 H         0.472975        -1.446049        -1.473667
 H        -0.355152        -0.952067        -0.082002
 H         2.836020         0.509570        -1.895895
 H         1.944879         1.858860        -1.247374
 H         4.507764         1.715200        -0.106512
 H         2.889137         1.365150         2.293249
 H         4.312184        -1.078988         2.438368
 H         2.874715        -1.865393        -0.590941
 H         2.050113        -1.767231         1.174122
