19
Iteration:   536charge 0 multiplicity 1
 C         0.098211        -0.272221        -0.826219
 C         1.503954        -0.220977        -0.147246
 C         2.510491         0.536266        -1.125325
 C         3.507376         0.963208        -0.042633
 C         2.823095         0.922415         1.244191
 O         1.420845         0.782127         1.026037
 C         3.595000        -0.273915         0.873989
 O         4.692648        -0.675927         1.535888
 C         2.493820        -1.310675         0.441560
 H        -0.687293        -0.761953        -0.202961
 H        -0.162918         0.849325        -0.756008
 H         0.054470        -0.638771        -1.817157
 H         3.097603        -0.030693        -1.875520
 H         1.921321         1.359559        -1.653047
 H         4.430372         1.599080        -0.290997
 H         3.034376         1.607968         2.041682
 H         4.635747        -0.781489         2.513425
 H         2.883095        -1.932717        -0.392233
 H         2.134565        -1.856352         1.349038
