19
Iteration:  4445
 C         0.155674        -0.372249        -0.801417
 C         1.567237        -0.129081        -0.250617
 C         2.533575         0.855109        -1.044051
 C         3.560183         0.978552         0.008935
 C         2.792196         0.821258         1.325556
 O         1.377019         0.621077         0.968246
 C         3.556544        -0.340815         0.910087
 O         4.660066        -0.625568         1.669083
 C         2.468257        -1.269635         0.173914
 H         0.095039        -0.042881        -1.850456
 H        -0.096771        -1.448032        -0.695518
 H        -0.447106         0.191445        -0.021740
 H         2.822599         0.526887        -2.125217
 H         1.986575         1.798026        -1.263419
 H         4.416467         1.701205         0.029401
 H         3.012469         1.306137         2.249644
 H         4.412075        -1.383082         2.284341
 H         3.035915        -1.788017        -0.597031
 H         2.104822        -2.062415         0.852177
