19
Iteration:  4859charge 0 multiplicity 1
 C         0.153596        -0.349418        -0.846524
 C         1.530402        -0.085435        -0.211622
 C         2.439390         0.905365        -1.056377
 C         3.593410         0.996199         0.057448
 C         2.783002         0.814762         1.303233
 O         1.433572         0.605750         1.079241
 C         3.583173        -0.342178         0.816019
 O         4.651984        -0.708032         1.641737
 C         2.496406        -1.317389         0.153609
 H        -0.429125        -1.094436        -0.224285
 H        -0.373017         0.607560        -1.000277
 H         0.343450        -0.878614        -1.816266
 H         2.714443         0.388857        -1.889206
 H         1.889041         1.923444        -1.114820
 H         4.294994         1.758193         0.006163
 H         3.122268         1.309076         2.197461
 H         4.440281        -0.788053         2.608990
 H         2.970180        -1.619960        -0.785758
 H         2.247052        -2.193141         0.822868
