19
Iteration:  1223charge 0 multiplicity 1
 C         0.110019        -0.330310        -0.776284
 C         1.551400        -0.204865        -0.232979
 C         2.446905         0.757940        -1.085812
 C         3.588829         0.988508        -0.049622
 C         2.789808         0.816103         1.334964
 O         1.416241         0.687411         0.974177
 C         3.570436        -0.271138         0.783379
 O         4.742585        -0.643643         1.624475
 C         2.445912        -1.263948         0.430428
 H        -0.555663        -0.295663         0.101775
 H        -0.200811         0.496221        -1.403464
 H        -0.174873        -1.386019        -1.237164
 H         2.737360         0.560267        -2.208490
 H         1.912819         1.621270        -1.075123
 H         4.537904         1.576121        -0.178757
 H         2.945119         1.384134         2.226898
 H         5.060886        -1.451263         1.261022
 H         2.825970        -2.130443        -0.220338
 H         1.874264        -1.735499         1.236592
