19
Iteration:  3229charge 0 multiplicity 1
 C         0.230983        -0.305826        -0.893742
 C         1.577873        -0.195724        -0.183835
 C         2.510198         0.892188        -0.960968
 C         3.532761         1.031766         0.116664
 C         2.637248         0.815839         1.353926
 O         1.339942         0.640533         0.991380
 C         3.532782        -0.374016         0.881889
 O         4.731195        -0.684432         1.515633
 C         2.603305        -1.323172         0.187106
 H        -0.127288         0.607413        -1.490732
 H         0.299143        -1.055121        -1.642286
 H        -0.636773        -0.568465        -0.194293
 H         2.642482         0.505252        -2.033220
 H         1.952559         1.749730        -1.070663
 H         4.278493         1.689085         0.323589
 H         2.710207         1.459647         2.251788
 H         4.602381        -0.920208         2.516273
 H         3.000916        -1.814108        -0.726546
 H         2.180916        -2.203591         0.868211
