19
Iteration:  2393
 C         0.260153        -0.435242        -0.869582
 C         1.597188        -0.147339        -0.214921
 C         2.590655         0.841597        -1.023142
 C         3.532050         1.021098         0.109350
 C         2.688985         0.860102         1.352280
 O         1.331542         0.617212         1.019990
 C         3.496045        -0.312166         0.871946
 O         4.681284        -0.709088         1.457346
 C         2.493472        -1.267659         0.289682
 H        -0.497491         0.226412        -0.424039
 H         0.246924        -0.156723        -1.876939
 H        -0.241238        -1.375640        -0.721133
 H         2.979502         0.309045        -1.863453
 H         2.123484         1.869164        -1.447682
 H         4.409153         1.547976         0.049105
 H         2.859424         1.307009         2.349590
 H         4.775458        -0.175867         2.294587
 H         2.797884        -1.956526        -0.540354
 H         1.977573        -1.614096         1.279851
