19
Iteration:  1075
 C         0.152943        -0.339748        -0.743137
 C         1.554062        -0.153876        -0.232713
 C         2.471450         0.670726        -1.148319
 C         3.537048         0.940801        -0.085316
 C         2.841698         0.938592         1.315465
 O         1.443034         0.686569         1.014047
 C         3.513353        -0.247241         0.888589
 O         4.614379        -0.690727         1.604156
 C         2.517338        -1.274681         0.455096
 H        -0.347406        -1.145605        -0.175223
 H        -0.355546         0.703308        -0.648958
 H         0.076808        -0.723432        -1.760511
 H         2.687144         0.072903        -1.956157
 H         2.000768         1.675497        -1.539835
 H         4.556445         1.478097        -0.184978
 H         3.014201         1.507611         2.233855
 H         5.235754        -0.942937         0.911125
 H         2.742421        -1.874563        -0.408560
 H         1.954273        -1.854858         1.178572
