19
Iteration:  4132
 C         0.247792        -0.498722        -0.881286
 C         1.576774        -0.105028        -0.250783
 C         2.525498         1.041977        -0.955350
 C         3.503165         1.122298         0.217024
 C         2.619649         0.737113         1.525243
 O         1.290420         0.589069         1.031052
 C         3.561845        -0.298797         0.887359
 O         4.755047        -0.773892         1.345919
 C         2.567503        -1.196935         0.146137
 H        -0.170689         0.157533        -1.598000
 H         0.481965        -1.387354        -1.404398
 H        -0.602250        -0.703504        -0.175947
 H         2.993593         0.815638        -1.926873
 H         1.971081         2.016192        -0.924705
 H         4.422044         1.622706         0.245917
 H         2.708572         1.245062         2.476693
 H         4.552209        -1.658766         1.740715
 H         3.104414        -1.679965        -0.640702
 H         2.122739        -1.849279         0.841691
