19
Iteration:  1593
 C         0.132884        -0.473730        -0.688928
 C         1.545190        -0.114882        -0.130047
 C         2.457165         0.675321        -1.078112
 C         3.627961         1.008760        -0.048715
 C         2.802286         0.937863         1.285283
 O         1.457139         0.771852         1.034963
 C         3.599149        -0.241824         0.771104
 O         4.596607        -0.739841         1.523884
 C         2.462493        -1.221172         0.303061
 H        -0.068029        -1.470560        -0.375286
 H        -0.553006         0.334856        -0.389836
 H         0.190125        -0.566359        -1.844839
 H         2.732579         0.036854        -1.918714
 H         2.021318         1.583573        -1.462688
 H         4.691798         1.386800        -0.144388
 H         3.105422         1.455546         2.177877
 H         4.266754        -1.067525         2.385008
 H         2.689504        -1.956516        -0.515986
 H         2.079053        -1.840927         1.109576
