19
Iteration:  1354
 C         0.107394        -0.376002        -0.687021
 C         1.513061        -0.062044        -0.222842
 C         2.493386         0.605720        -1.129336
 C         3.526332         1.023692        -0.007428
 C         2.813290         0.858846         1.268842
 O         1.394520         0.746693         1.077101
 C         3.604660        -0.291092         0.799852
 O         4.729305        -0.708016         1.561049
 C         2.463868        -1.241685         0.291817
 H        -0.286115        -1.175375        -0.129741
 H        -0.455345         0.539225        -0.637333
 H         0.175563        -0.653991        -1.803581
 H         2.966029        -0.287620        -1.750778
 H         2.108006         1.364172        -1.767972
 H         4.466294         1.617167        -0.198139
 H         3.109602         1.450319         2.148684
 H         4.475794        -0.849373         2.500351
 H         2.605095        -1.884124        -0.606267
 H         2.131048        -1.700072         1.195477
