19
Iteration:   918
 C         0.096419        -0.417486        -0.736866
 C         1.477283        -0.136031        -0.169569
 C         2.504282         0.641713        -1.086979
 C         3.557750         1.045618        -0.088270
 C         2.838752         0.926733         1.281458
 O         1.429536         0.781224         0.960562
 C         3.565935        -0.337360         0.868865
 O         4.760490        -0.707007         1.593178
 C         2.440757        -1.232179         0.343901
 H        -0.477210        -1.285327        -0.252265
 H        -0.434246         0.447508        -0.424677
 H        -0.008170        -0.488436        -1.900214
 H         2.819706         0.100860        -2.047480
 H         1.986375         1.505080        -1.470881
 H         4.481266         1.740097        -0.293489
 H         3.105850         1.387130         2.215002
 H         4.460460        -1.351705         2.315688
 H         2.845427        -2.158202        -0.215236
 H         1.952002        -1.725911         1.188512
