19
Iteration:  3363
 C         0.214821        -0.352666        -0.904621
 C         1.557067        -0.174817        -0.306353
 C         2.478358         0.886215        -1.008727
 C         3.503445         1.040783         0.113546
 C         2.700741         0.835365         1.340538
 O         1.352996         0.609363         1.064041
 C         3.578834        -0.348367         0.884674
 O         4.659925        -0.702371         1.671010
 C         2.554729        -1.245672         0.180399
 H        -0.222390         0.561378        -0.614789
 H         0.354169        -0.720291        -2.012347
 H        -0.327629        -1.188025        -0.422522
 H         2.918126         0.521497        -1.978045
 H         2.012961         1.819647        -1.208506
 H         4.417748         1.800558         0.097755
 H         2.919888         1.393284         2.248308
 H         5.192636        -1.360069         1.118646
 H         2.935520        -1.911554        -0.657920
 H         2.068839        -1.876337         1.013887
