19
Iteration:  3707charge 0 multiplicity 1
 C         0.293233        -0.570233        -0.955501
 C         1.553932        -0.032581        -0.268619
 C         2.495026         0.951703        -1.055899
 C         3.511450         1.070488         0.110518
 C         2.736351         0.921755         1.467460
 O         1.295157         0.611761         1.177252
 C         3.509507        -0.330938         0.879883
 O         4.672648        -0.892293         1.424371
 C         2.524309        -1.145186         0.204105
 H        -0.264070         0.281210        -1.299634
 H         0.715837        -1.053734        -1.745472
 H        -0.111948        -1.114892        -0.117943
 H         2.959822         0.422501        -1.831739
 H         2.186071         1.989513        -1.407642
 H         4.327306         1.678105        -0.015475
 H         3.015942         1.503954         2.408185
 H         4.662483        -0.881676         2.442199
 H         3.008303        -1.631137        -0.652131
 H         2.059530        -1.848311         0.939096
