19
Iteration:  3260charge 0 multiplicity 1
 C         0.239299        -0.404116        -0.968309
 C         1.531243        -0.057346        -0.231653
 C         2.535713         0.866731        -1.031793
 C         3.503287         1.030706         0.142308
 C         2.713900         0.861478         1.415516
 O         1.360228         0.558033         1.085428
 C         3.499380        -0.302585         0.880176
 O         4.777725        -0.752399         1.503954
 C         2.500834        -1.210199         0.219753
 H        -0.553598         0.437390        -1.099025
 H         0.538694        -0.605257        -1.932982
 H        -0.225204        -1.321938        -0.592596
 H         2.759160         0.114674        -1.805173
 H         1.997038         1.738896        -1.479594
 H         4.471473         1.446256         0.148589
 H         2.662032         1.395608         2.381978
 H         4.798533        -0.697229         2.426688
 H         2.841072        -1.841463        -0.621013
 H         1.762669        -1.731821         0.961984
