19
Iteration:  4001charge 0 multiplicity 1
 C         0.210474        -0.510803        -0.876421
 C         1.586163        -0.036433        -0.248833
 C         2.403924         0.970885        -0.958464
 C         3.506389         1.050212         0.192346
 C         2.706356         0.866040         1.393567
 O         1.323155         0.626722         1.060708
 C         3.560254        -0.321973         0.807227
 O         4.709226        -0.815627         1.514922
 C         2.647940        -1.206898         0.126135
 H        -0.580195         0.102203        -0.433684
 H         0.380519        -0.169004        -1.898631
 H         0.108231        -1.635320        -0.961424
 H         2.868049         0.650125        -1.865527
 H         1.912380         1.944796        -1.164941
 H         4.456374         1.637198         0.099988
 H         2.874232         1.310254         2.401645
 H         4.332450        -1.543606         2.123711
 H         3.014072        -1.855490        -0.671131
 H         2.195613        -1.906849         0.863241
