19
Iteration:  2780charge 0 multiplicity 1
 C         0.299742        -0.538792        -0.883642
 C         1.599571        -0.161014        -0.232917
 C         2.465485         0.892870        -1.008330
 C         3.526691         1.041995         0.125399
 C         2.731350         0.900769         1.371229
 O         1.356011         0.729343         0.966813
 C         3.527038        -0.290750         0.916541
 O         4.642895        -0.838169         1.483910
 C         2.490137        -1.174095         0.272306
 H        -0.277864         0.446075        -1.193118
 H         0.477982        -1.303206        -1.747482
 H        -0.209965        -1.134169        -0.150071
 H         2.941199         0.608828        -2.030868
 H         1.933405         1.795587        -1.136362
 H         4.477708         1.746595         0.029426
 H         2.969528         1.399533         2.281975
 H         4.551782        -0.871652         2.409364
 H         3.010204        -1.824758        -0.415108
 H         1.998492        -1.930827         0.938333
