19
Iteration:  2265
 C         0.239765        -0.411293        -0.875235
 C         1.570759        -0.107524        -0.251358
 C         2.547165         0.772299        -1.052298
 C         3.527236         1.012974         0.103327
 C         2.645792         0.880111         1.441268
 O         1.313170         0.642120         1.062701
 C         3.534166        -0.264386         0.922396
 O         4.744011        -0.702598         1.417933
 C         2.533386        -1.248614         0.270527
 H         0.141836         0.194327        -1.780321
 H        -0.008502        -1.510185        -1.139271
 H        -0.625145        -0.045164        -0.152196
 H         2.938792         0.246753        -2.010887
 H         2.044355         1.660377        -1.377478
 H         4.424926         1.602272         0.020298
 H         2.764903         1.538561         2.329960
 H         4.677565        -1.259530         2.177182
 H         3.056151        -1.852949        -0.462900
 H         2.030002        -1.964066         0.930242
