19
Iteration:  4854
 C         0.172822        -0.333760        -0.884551
 C         1.512864        -0.074231        -0.180556
 C         2.437876         0.936459        -1.031098
 C         3.581784         0.945440         0.036454
 C         2.782074         0.799418         1.250492
 O         1.398380         0.606745         1.121246
 C         3.556297        -0.366402         0.862919
 O         4.661483        -0.687070         1.600065
 C         2.557954        -1.315466         0.174209
 H        -0.453232        -0.972344        -0.292121
 H        -0.336984         0.611746        -1.081806
 H         0.342983        -1.008758        -1.740066
 H         2.710863         0.393244        -2.060158
 H         2.025599         1.891663        -1.086979
 H         4.403283         1.764481         0.091717
 H         3.071733         1.312145         2.181234
 H         4.402125        -0.757985         2.536455
 H         2.981315        -1.741707        -0.755196
 H         2.214097        -2.065267         0.862548
