19
Iteration:   804charge 0 multiplicity 1
 C         0.073853        -0.280552        -0.857397
 C         1.483005        -0.165110        -0.182597
 C         2.413329         0.645702        -1.056605
 C         3.498995         0.883119        -0.029175
 C         2.856328         1.003693         1.306014
 O         1.449801         0.699494         1.018255
 C         3.535994        -0.309806         0.950788
 O         4.819569        -0.703293         1.507544
 C         2.461372        -1.308038         0.355425
 H        -0.724218        -0.164813        -0.172550
 H         0.004296         0.606829        -1.593121
 H        -0.102403        -1.146995        -1.412994
 H         2.803961         0.049643        -1.935238
 H         1.844079         1.488048        -1.513183
 H         4.383137         1.583139        -0.265296
 H         3.048946         1.560111         2.213845
 H         4.954006        -0.488378         2.494968
 H         3.067086        -1.827459        -0.326006
 H         2.079462        -1.988515         1.187315
