19
Iteration:  3157
 C         0.358708        -0.555022        -0.852965
 C         1.588298        -0.106016        -0.281041
 C         2.462621         0.861284        -0.974046
 C         3.568694         1.063766         0.170673
 C         2.676997         0.863175         1.423267
 O         1.351391         0.788409         0.968466
 C         3.506991        -0.276133         0.948035
 O         4.652262        -0.853614         1.426619
 C         2.528050        -1.216758         0.212228
 H        -0.153567         0.200454        -1.323056
 H         0.471864        -1.429781        -1.594772
 H        -0.404862        -0.891488        -0.090233
 H         2.837358         0.735328        -1.981555
 H         1.765242         1.826313        -1.033231
 H         4.299560         1.839467         0.131084
 H         2.876933         1.473757         2.298950
 H         4.393276        -1.385225         2.263955
 H         3.038924        -1.731321        -0.621463
 H         2.072475        -1.960751         0.799961
