19
Iteration:  1720charge 0 multiplicity 1
 C         0.208206        -0.473328        -0.763213
 C         1.587086        -0.119443        -0.186312
 C         2.481394         0.786978        -0.996013
 C         3.522196         1.069677        -0.026190
 C         2.791535         0.918945         1.316574
 O         1.413082         0.712390         1.007136
 C         3.528976        -0.312973         0.832275
 O         4.677909        -0.774135         1.477895
 C         2.457072        -1.206423         0.342881
 H        -0.462477        -0.786199         0.037631
 H        -0.255294         0.347015        -1.238283
 H         0.502445        -1.272782        -1.514746
 H         2.851237         0.371995        -1.891602
 H         1.802267         1.660591        -1.256247
 H         4.461934         1.637580        -0.243015
 H         3.095028         1.422393         2.234053
 H         4.441845        -1.529838         1.992331
 H         2.893820        -1.923830        -0.354307
 H         1.837248        -1.652299         1.159279
