19
Iteration:  4397
 C         0.286968        -0.503415        -0.887077
 C         1.536743        -0.060886        -0.208406
 C         2.547485         0.826178        -1.022817
 C         3.555719         1.015468         0.118272
 C         2.640310         0.919111         1.353636
 O         1.337554         0.669809         1.047827
 C         3.539957        -0.263730         0.971362
 O         4.653716        -0.886016         1.387623
 C         2.511613        -1.140340         0.318983
 H         0.719466        -0.813693        -1.858787
 H        -0.136499        -1.407046        -0.415503
 H        -0.407193         0.285509        -0.957469
 H         2.890201         0.400400        -1.930420
 H         1.993315         1.800976        -1.431973
 H         4.478265         1.485640         0.058596
 H         2.929149         1.582399         2.172952
 H         5.079037        -0.494570         2.151923
 H         2.751297        -1.810610        -0.516322
 H         1.949499        -1.839158         0.962087
