19
Iteration:  1254charge 0 multiplicity 1
 C         0.173333        -0.412629        -0.767087
 C         1.501714        -0.097694        -0.094341
 C         2.533570         0.624643        -1.143897
 C         3.553751         0.919226        -0.018880
 C         2.752962         0.949044         1.313259
 O         1.358877         0.766124         1.091808
 C         3.519081        -0.268636         0.899574
 O         4.717519        -0.740978         1.552464
 C         2.469418        -1.200501         0.308294
 H        -0.528596        -0.714747         0.031251
 H        -0.215929         0.441379        -1.224160
 H         0.366001        -1.176164        -1.570131
 H         2.848366        -0.015770        -2.018585
 H         2.077360         1.519863        -1.556337
 H         4.506538         1.443110        -0.054557
 H         2.972559         1.707658         2.041671
 H         5.248053        -0.959394         0.720949
 H         2.964649        -1.573259        -0.599897
 H         2.026238        -1.990119         0.902227
