19
Iteration:  4872charge 0 multiplicity 1
 C         0.165627        -0.404916        -0.746598
 C         1.551639        -0.122393        -0.249247
 C         2.479127         0.800968        -1.001598
 C         3.515183         1.094554         0.033715
 C         2.808325         0.842415         1.398912
 O         1.434976         0.629614         0.983809
 C         3.596524        -0.300404         0.812583
 O         4.669242        -0.792944         1.676051
 C         2.513662        -1.196184         0.057479
 H        -0.362664        -1.217593        -0.210743
 H        -0.471830         0.504689        -0.566706
 H         0.148900        -0.618008        -1.797823
 H         2.953006         0.479120        -1.925229
 H         1.898978         1.701633        -1.378673
 H         4.443676         1.573619        -0.166238
 H         2.846317         1.349953         2.427079
 H         4.109100        -0.809085         2.458239
 H         2.814734        -1.766267        -0.837338
 H         1.938885        -1.913979         0.706448
