19
Iteration:  4050
 C         0.126369        -0.345798        -0.826453
 C         1.632698        -0.142840        -0.226697
 C         2.522759         1.025099        -0.999781
 C         3.431832         1.086064         0.200363
 C         2.674828         0.715200         1.431800
 O         1.335945         0.539208         0.993681
 C         3.566878        -0.331487         0.783461
 O         4.755345        -0.707102         1.546412
 C         2.594272        -1.294991         0.082446
 H        -0.284821         0.684948        -0.674444
 H         0.014045        -0.739949        -1.862649
 H        -0.243579        -1.091261        -0.171880
 H         2.992903         0.629604        -1.963313
 H         2.055728         1.967769        -1.314114
 H         4.364301         1.725847         0.315565
 H         2.756472         1.133141         2.385756
 H         4.443222        -0.951022         2.391231
 H         2.992347        -1.749647        -0.855046
 H         2.392373        -2.219622         0.692033
