19
Iteration:  4255charge 0 multiplicity 1
 C         0.276068        -0.555105        -0.863447
 C         1.586832        -0.052299        -0.195557
 C         2.576170         0.903836        -0.893254
 C         3.547478         1.146407         0.248316
 C         2.548401         0.861172         1.419953
 O         1.266875         0.646885         1.012271
 C         3.541410        -0.285892         0.878545
 O         4.779693        -0.807231         1.320796
 C         2.508589        -1.161413         0.210436
 H        -0.600989        -0.621749        -0.155628
 H         0.016793         0.062809        -1.763961
 H         0.312173        -1.508541        -1.404985
 H         2.962116         0.318295        -1.667953
 H         2.105184         1.882980        -1.386189
 H         4.523146         1.711531         0.288962
 H         2.783696         0.948293         2.487042
 H         4.499753        -1.638562         1.695275
 H         3.012329        -1.495143        -0.720866
 H         2.157891        -2.123206         0.569596
