19
Iteration:  4425charge 0 multiplicity 1
 C         0.208763        -0.415254        -0.923665
 C         1.508935        -0.117380        -0.210744
 C         2.415196         0.824284        -1.019048
 C         3.528105         1.046668         0.048210
 C         2.749093         0.908299         1.352032
 O         1.409633         0.666093         1.052668
 C         3.616985        -0.273091         0.864811
 O         4.681549        -0.800896         1.600756
 C         2.547120        -1.256736         0.234601
 H         0.398193        -0.225622        -1.988711
 H        -0.043798        -1.460028        -0.841587
 H        -0.625714         0.276021        -0.565315
 H         2.847817         0.258227        -1.912733
 H         1.945374         1.646259        -1.418716
 H         4.420601         1.671193        -0.160000
 H         3.008568         1.435593         2.236849
 H         4.394119        -0.933601         2.552730
 H         2.746058        -1.949387        -0.575600
 H         2.100807        -1.920153         0.996269
