19
Iteration:  1345
 C         0.155998        -0.425852        -0.696557
 C         1.506904        -0.106020        -0.123005
 C         2.549355         0.595746        -1.124865
 C         3.538942         1.083802        -0.061955
 C         2.830224         0.942385         1.283166
 O         1.403080         0.787760         1.101998
 C         3.577515        -0.355766         0.778789
 O         4.685089        -0.749303         1.558150
 C         2.430456        -1.239122         0.216219
 H        -0.346141        -1.231322        -0.186898
 H        -0.548613         0.486160        -0.461050
 H         0.135069        -0.531532        -1.796022
 H         2.985273        -0.185982        -1.872498
 H         2.026779         1.242371        -1.718511
 H         4.369542         1.762963        -0.133818
 H         3.071622         1.486294         2.239202
 H         4.485657        -0.534759         2.503565
 H         2.952585        -1.935652        -0.473929
 H         1.926985        -1.869439         1.003057
