19
Iteration:   652
 C         0.161730        -0.288779        -0.767119
 C         1.497667        -0.183170        -0.167426
 C         2.453773         0.585030        -1.082796
 C         3.549737         0.862194        -0.035800
 C         2.796711         0.903100         1.253069
 O         1.441848         0.779852         0.968404
 C         3.491752        -0.342687         0.916967
 O         4.790021        -0.591796         1.531521
 C         2.467529        -1.292882         0.377346
 H        -0.526372        -0.819973        -0.131903
 H        -0.319348         0.757490        -0.832685
 H         0.138592        -0.766698        -1.744024
 H         2.961008         0.164315        -2.003859
 H         1.987731         1.466248        -1.350435
 H         4.423893         1.526444        -0.247514
 H         2.957732         1.487589         2.148678
 H         4.550753        -0.745531         2.492459
 H         2.780041        -1.892485        -0.444153
 H         1.855350        -1.855733         1.109067
