19
Iteration:  3386
 C         0.236424        -0.356841        -0.952847
 C         1.524928        -0.071819        -0.191572
 C         2.494288         0.856662        -1.009657
 C         3.542577         0.975810         0.084975
 C         2.690923         0.839023         1.380700
 O         1.331953         0.552670         1.020810
 C         3.495854        -0.285969         0.970147
 O         4.718863        -0.814871         1.584793
 C         2.534435        -1.176158         0.228550
 H        -0.254569         0.543571        -1.228244
 H         0.526296        -1.227472        -1.728284
 H        -0.486866        -0.913137        -0.368061
 H         2.821533         0.437288        -1.954746
 H         2.167311         1.873892        -1.178121
 H         4.467114         1.639564        -0.036024
 H         2.832832         1.466482         2.228653
 H         5.328880        -0.226431         1.136610
 H         3.036927        -1.642356        -0.673475
 H         2.045933        -1.892330         0.928538
