19
Iteration:   372
 C         0.019758        -0.312633        -0.753743
 C         1.479518        -0.137951        -0.245976
 C         2.570457         0.649227        -1.096532
 C         3.596207         0.796337         0.003749
 C         2.760102         1.018855         1.197821
 O         1.436777         0.686107         1.040444
 C         3.587126        -0.300418         0.976981
 O         4.814726        -0.613367         1.512775
 C         2.373634        -1.330150         0.316089
 H        -0.778174        -0.034685        -0.090479
 H        -0.181147         0.455962        -1.644750
 H        -0.107020        -1.305086        -0.989721
 H         2.833235         0.205152        -2.034323
 H         2.205329         1.666900        -1.283305
 H         4.529345         1.327563         0.011134
 H         3.015643         1.810545         1.982403
 H         4.580561        -0.787868         2.409459
 H         2.815876        -2.070616        -0.339193
 H         1.966558        -1.789489         1.270643
