19
Iteration:  2665charge 0 multiplicity 1
 C         0.175028        -0.427127        -0.923411
 C         1.477684        -0.147611        -0.215406
 C         2.568383         0.788883        -0.989886
 C         3.529464         0.996533         0.079800
 C         2.721950         0.886404         1.383796
 O         1.324979         0.668473         1.014300
 C         3.551085        -0.284571         0.897318
 O         4.780721        -0.767877         1.559060
 C         2.523757        -1.221469         0.226636
 H        -0.527624         0.451942        -0.898449
 H         0.351487        -0.618401        -2.008966
 H        -0.451489        -1.346752        -0.506352
 H         2.909426         0.246413        -1.872647
 H         2.170784         1.854674        -1.285014
 H         4.369543         1.776103         0.042026
 H         2.781042         1.541184         2.232782
 H         4.732138        -0.438275         2.429874
 H         2.925813        -1.762155        -0.642742
 H         2.020345        -1.969698         0.761226
