19
Iteration:  1849charge 0 multiplicity 1
 C         0.263701        -0.479588        -0.757573
 C         1.539001        -0.105707        -0.202269
 C         2.443621         0.872792        -0.957112
 C         3.537656         0.953170         0.111867
 C         2.704788         0.922412         1.349630
 O         1.328275         0.754815         0.953769
 C         3.546105        -0.351008         0.865637
 O         4.803491        -0.758405         1.386098
 C         2.492763        -1.244354         0.319122
 H        -0.347788        -0.970694         0.041251
 H        -0.158633         0.404409        -1.183022
 H         0.370817        -1.240560        -1.537746
 H         2.799618         0.380099        -1.963759
 H         2.000929         1.795904        -1.201278
 H         4.422375         1.698481        -0.073169
 H         2.821171         1.689386         2.116092
 H         4.527730        -1.557568         1.955505
 H         2.743635        -1.898921        -0.502799
 H         1.922807        -1.808467         1.084206
