19
Iteration:  4188charge 0 multiplicity 1
 C         0.232530        -0.325828        -0.899918
 C         1.536684        -0.134048        -0.260569
 C         2.416295         0.948574        -0.885670
 C         3.493994         1.063100         0.158278
 C         2.711815         0.704056         1.360910
 O         1.358217         0.530256         1.127288
 C         3.611635        -0.346603         0.756403
 O         4.669248        -0.720145         1.535349
 C         2.659711        -1.223909         0.093480
 H        -0.477645         0.376626        -0.499910
 H         0.261837        -0.362093        -1.971738
 H        -0.194015        -1.371975        -0.700556
 H         2.777828         0.522733        -1.791162
 H         1.884907         1.941203        -1.254600
 H         4.278808         1.956584         0.221635
 H         2.810716         1.270739         2.280309
 H         4.508207        -0.541411         2.524649
 H         3.037491        -1.624880        -0.848464
 H         2.261114        -2.119880         0.494237
