19
Iteration:  4757
 C         0.229907        -0.526379        -0.889016
 C         1.563965        -0.072036        -0.243128
 C         2.427394         0.987537        -0.992553
 C         3.537447         1.015758         0.055890
 C         2.726033         0.867263         1.439264
 O         1.393185         0.721749         1.052869
 C         3.561948        -0.288202         0.814684
 O         4.678523        -0.837989         1.563318
 C         2.558116        -1.253362         0.160075
 H        -0.317239        -0.610188         0.052094
 H        -0.389247         0.241462        -1.381510
 H         0.209095        -1.571238        -1.297623
 H         2.875851         0.749288        -2.016040
 H         1.888267         1.962215        -1.108543
 H         4.539696         1.419605         0.008631
 H         2.894224         1.429921         2.418808
 H         4.331522        -1.490729         2.155811
 H         2.963378        -1.776080        -0.725042
 H         2.140810        -2.014735         0.819377
