19
Iteration:  3644
 C         0.215596        -0.357806        -0.882569
 C         1.555300        -0.114972        -0.282564
 C         2.560771         0.847837        -1.005261
 C         3.516666         0.974517         0.155078
 C         2.686543         0.831789         1.404428
 O         1.333377         0.535755         1.051980
 C         3.568494        -0.321912         0.954846
 O         4.733312        -0.644911         1.482691
 C         2.537295        -1.181896         0.165285
 H        -0.166730         0.384810        -1.582750
 H        -0.083840        -1.342263        -1.372713
 H        -0.628580        -0.282156        -0.058821
 H         2.958425         0.195059        -1.868675
 H         2.208255         1.765348        -1.337398
 H         4.131665         1.763434         0.195703
 H         2.746341         1.363810         2.394049
 H         4.841159        -1.482279         1.996235
 H         2.864296        -1.603758        -0.766056
 H         1.917781        -1.903120         0.665754
