19
Iteration:  4811charge 0 multiplicity 1
 C         0.189856        -0.447285        -0.929985
 C         1.556508        -0.054822        -0.222999
 C         2.570981         0.842201        -0.993726
 C         3.438927         1.095762         0.233991
 C         2.693719         0.871120         1.406883
 O         1.350905         0.704251         1.029713
 C         3.508014        -0.362442         0.891625
 O         4.784908        -0.773173         1.324199
 C         2.492348        -1.284562         0.307946
 H        -0.661676        -0.418243        -0.272894
 H         0.125148         0.322396        -1.699776
 H         0.282200        -1.441902        -1.412834
 H         3.195069         0.255602        -1.710898
 H         2.017730         1.681763        -1.255893
 H         4.349420         1.764955         0.280076
 H         2.964824         1.374795         2.372708
 H         4.903646        -1.392594         2.017741
 H         2.923940        -1.978257        -0.419085
 H         1.859007        -1.738716         1.037053
