19
Iteration:  1980charge 0 multiplicity 1
 C         0.171239        -0.511952        -0.898789
 C         1.489659        -0.149103        -0.187367
 C         2.485775         0.803188        -0.968687
 C         3.519008         1.051273         0.114539
 C         2.717628         0.966437         1.435400
 O         1.358760         0.748733         1.048748
 C         3.493603        -0.279658         0.972889
 O         4.807030        -0.860830         1.312925
 C         2.560978        -1.201419         0.235624
 H        -0.352196        -1.223134        -0.310528
 H        -0.409675         0.351920        -0.971524
 H         0.299353        -0.967824        -1.850733
 H         3.020238         0.302079        -1.867003
 H         1.978147         1.641445        -1.332291
 H         4.327485         1.706425         0.113376
 H         2.875046         1.520992         2.364875
 H         4.689384        -0.918610         2.287271
 H         3.022333        -1.573777        -0.643856
 H         2.181870        -1.948361         0.905737
