19
Iteration:  1666charge 0 multiplicity 1
 C         0.176861        -0.517869        -0.759487
 C         1.526872        -0.033167        -0.152800
 C         2.543197         0.744645        -1.111202
 C         3.569380         1.060229         0.042700
 C         2.763791         0.934103         1.405980
 O         1.412882         0.771012         1.042484
 C         3.532110        -0.359084         0.788850
 O         4.669845        -0.811891         1.495167
 C         2.391191        -1.210956         0.320936
 H        -0.576771        -0.559455         0.060489
 H        -0.122333         0.128651        -1.546747
 H         0.415135        -1.572465        -1.130192
 H         3.010500         0.059861        -1.770160
 H         1.982252         1.570311        -1.792377
 H         4.441478         1.678679         0.077404
 H         2.996182         1.434289         2.337685
 H         5.418454        -0.495321         1.031736
 H         2.652761        -1.914093        -0.490510
 H         1.952155        -1.844467         1.134051
