19
Iteration:  3971
 C         0.324670        -0.549572        -0.973631
 C         1.590414        -0.042024        -0.225204
 C         2.488051         0.953257        -1.000088
 C         3.510152         1.057626         0.234148
 C         2.694510         0.896742         1.460179
 O         1.303360         0.590043         1.080127
 C         3.520185        -0.289325         0.884183
 O         4.748506        -0.843625         1.290001
 C         2.464771        -1.183135         0.292208
 H        -0.580273        -0.029241        -0.615413
 H         0.585198        -0.204687        -1.964702
 H         0.010626        -1.640283        -1.041875
 H         2.997985         0.583668        -1.851869
 H         1.915699         1.948101        -1.109703
 H         4.351355         1.660863         0.350315
 H         2.783215         1.515361         2.408720
 H         4.699115        -1.163698         2.193014
 H         2.892877        -1.747295        -0.567827
 H         1.939204        -1.749571         1.139556
