19
Iteration:  4062charge 0 multiplicity 1
 C         0.236873        -0.359971        -0.831214
 C         1.542246        -0.131853        -0.314491
 C         2.493593         0.972568        -0.934133
 C         3.479596         1.157291         0.179994
 C         2.646018         0.743251         1.416998
 O         1.342580         0.523376         1.026909
 C         3.566995        -0.361395         0.882848
 O         4.769263        -0.751602         1.458751
 C         2.582105        -1.284936         0.123930
 H        -0.283795         0.580005        -1.115855
 H         0.388861        -0.861558        -1.816105
 H        -0.496691        -0.799711        -0.252735
 H         3.047910         0.760664        -1.945112
 H         1.756632         1.750425        -0.978991
 H         4.297798         2.004641         0.192810
 H         2.818764         1.233119         2.352577
 H         4.591420        -0.922392         2.442434
 H         2.993770        -1.684241        -0.814933
 H         2.068416        -1.995992         0.804177
