19
Iteration:  1856charge 0 multiplicity 1
 C         0.178406        -0.465903        -0.773283
 C         1.560398        -0.162904        -0.215924
 C         2.501917         0.867508        -0.974152
 C         3.551740         0.992376         0.095535
 C         2.710137         0.902375         1.353289
 O         1.340437         0.694067         0.964540
 C         3.552096        -0.316913         0.864917
 O         4.805823        -0.774020         1.393988
 C         2.483468        -1.179495         0.296943
 H        -0.524698        -0.680237         0.055324
 H        -0.450338         0.329805        -1.271369
 H         0.222606        -1.240673        -1.490054
 H         2.912028         0.419652        -1.907994
 H         1.988750         1.848284        -1.091103
 H         4.391543         1.601088        -0.073721
 H         2.793716         1.614826         2.189776
 H         4.640613        -1.304062         2.244686
 H         2.727902        -2.004210        -0.407883
 H         2.045021        -1.706375         1.168276
