19
Iteration:  1307charge 0 multiplicity 1
 C         0.139404        -0.539649        -0.690689
 C         1.553535        -0.106599        -0.237126
 C         2.427696         0.843354        -1.106025
 C         3.629016         0.886265        -0.126404
 C         2.765655         0.972273         1.279901
 O         1.375678         0.799564         0.952505
 C         3.573795        -0.232742         0.923745
 O         4.703780        -0.980249         1.586844
 C         2.500173        -1.167111         0.385893
 H        -0.018231        -1.507058        -0.132332
 H        -0.521664         0.188575        -0.323667
 H        -0.023901        -0.696623        -1.761669
 H         2.626940         0.496110        -2.106997
 H         2.003992         1.961524        -1.063483
 H         4.397392         1.660173        -0.299843
 H         3.018041         1.641550         2.072255
 H         5.086468        -0.092465         1.935272
 H         2.867860        -1.926772        -0.288763
 H         1.761596        -1.471326         1.112979
