19
Iteration:  2139charge 0 multiplicity 1
 C         0.170388        -0.396622        -0.883429
 C         1.547218        -0.140158        -0.217438
 C         2.477622         0.869600        -0.992903
 C         3.514955         0.983019         0.070417
 C         2.750989         0.907561         1.328378
 O         1.354710         0.627857         1.064532
 C         3.538455        -0.340571         0.956697
 O         4.725281        -0.703597         1.562827
 C         2.536196        -1.303012         0.218087
 H         0.078085        -1.423840        -1.321338
 H        -0.587270        -0.267685        -0.088511
 H         0.040337         0.276613        -1.677942
 H         2.784889         0.320791        -1.830356
 H         1.886558         1.914543        -1.072793
 H         4.342545         1.625507         0.008799
 H         2.928989         1.530268         2.233392
 H         5.322000        -0.778684         0.840775
 H         3.068529        -1.612868        -0.739199
 H         1.962255        -2.091506         0.791975
