19
Iteration:  1498charge 0 multiplicity 1
 C         0.103466        -0.428101        -0.747464
 C         1.485511        -0.047853        -0.209960
 C         2.490033         0.710321        -1.116825
 C         3.585203         0.977586        -0.015219
 C         2.865459         0.866341         1.271428
 O         1.482131         0.653295         1.068834
 C         3.519602        -0.325526         0.857463
 O         4.719061        -0.670240         1.568340
 C         2.381183        -1.212725         0.300645
 H        -0.403982        -0.997236         0.030940
 H        -0.319777         0.600460        -0.941409
 H         0.119979        -0.994200        -1.611988
 H         2.838620        -0.070706        -1.941764
 H         2.139476         1.580179        -1.634504
 H         4.477593         1.627141        -0.288992
 H         3.025451         1.362595         2.201243
 H         4.570045        -0.369140         2.441963
 H         2.739475        -1.742687        -0.601354
 H         1.971732        -1.962585         1.000023
