19
Iteration:  4735
 C         0.201485        -0.418423        -0.786500
 C         1.510406        -0.080859        -0.190548
 C         2.456872         0.943430        -0.944416
 C         3.583608         0.965571         0.035073
 C         2.799429         0.791099         1.277664
 O         1.395968         0.578656         1.025608
 C         3.603876        -0.343727         0.806083
 O         4.619968        -0.723563         1.613196
 C         2.508693        -1.207446         0.092270
 H        -0.485179        -1.034964        -0.234493
 H        -0.276042         0.545768        -1.108615
 H         0.635516        -1.020754        -1.617622
 H         2.929635         0.622810        -1.919446
 H         2.059327         2.035449        -0.942662
 H         4.272747         1.750256         0.128213
 H         3.008883         1.283157         2.275510
 H         4.392372        -0.740910         2.602546
 H         2.820821        -1.854800        -0.746048
 H         1.953839        -1.827016         0.791992
