19
Iteration:  1633charge 0 multiplicity 1
 C         0.142749        -0.335659        -0.652396
 C         1.555437        -0.119563        -0.209675
 C         2.444579         0.774880        -1.096036
 C         3.625913         0.889589        -0.061939
 C         2.755352         0.956324         1.272947
 O         1.376900         0.656389         0.957502
 C         3.579311        -0.298248         0.870951
 O         4.710959        -0.809113         1.639293
 C         2.528176        -1.244217         0.262742
 H        -0.473658        -0.713292         0.195875
 H        -0.263208         0.590915        -0.988086
 H        -0.186191        -1.040475        -1.476872
 H         2.569008         0.215881        -1.995306
 H         1.690197         1.667311        -1.330845
 H         4.396887         1.560207        -0.159494
 H         2.780010         1.613798         2.138871
 H         5.121759        -0.003074         2.015628
 H         2.948924        -1.756348        -0.612519
 H         1.978018        -1.935611         0.953447
