19
Iteration:  3464
 C         0.224168        -0.500951        -0.854451
 C         1.579552        -0.068899        -0.224903
 C         2.444110         0.891450        -0.965533
 C         3.570764         1.059989         0.084813
 C         2.711345         0.889233         1.360559
 O         1.357169         0.641004         1.007824
 C         3.545836        -0.304380         0.877786
 O         4.653820        -0.811039         1.567969
 C         2.574882        -1.164694         0.163172
 H        -0.129925         0.382418        -1.391207
 H         0.479279        -1.376147        -1.549919
 H        -0.399981        -0.797322        -0.058426
 H         2.877855         0.547899        -1.829724
 H         1.899694         1.827741        -1.221466
 H         4.459964         1.500296        -0.043754
 H         3.017451         1.226194         2.370490
 H         4.257103        -1.379117         2.193793
 H         3.049373        -1.635543        -0.732439
 H         2.043043        -1.951044         0.683160
