19
Iteration:   805charge 0 multiplicity 1
 C         0.072249        -0.276252        -0.861007
 C         1.486150        -0.162684        -0.187445
 C         2.407285         0.659228        -1.061105
 C         3.516101         0.893198        -0.031032
 C         2.849024         1.008514         1.301826
 O         1.448760         0.689086         1.020670
 C         3.534171        -0.311059         0.961190
 O         4.815488        -0.703727         1.504701
 C         2.464066        -1.322592         0.363268
 H        -0.732603        -0.158983        -0.127235
 H        -0.011040         0.622602        -1.607417
 H        -0.061034        -1.161713        -1.393303
 H         2.808941         0.019901        -1.950778
 H         1.856644         1.458343        -1.493834
 H         4.352229         1.569026        -0.283379
 H         3.068109         1.585074         2.198399
 H         4.979470        -0.500652         2.477979
 H         3.069767        -1.840135        -0.323144
 H         2.035628        -1.980267         1.196288
