19
Iteration:  3237
 C         0.215394        -0.344513        -0.959202
 C         1.517290        -0.126881        -0.211521
 C         2.533523         0.848452        -0.957614
 C         3.514213         0.934931         0.097449
 C         2.674337         0.796448         1.378642
 O         1.323366         0.624598         1.032974
 C         3.509006        -0.271082         0.913637
 O         4.765424        -0.699801         1.514956
 C         2.584732        -1.314410         0.202270
 H        -0.072514         0.719476        -1.302756
 H         0.265580        -0.936430        -1.849903
 H        -0.529780        -0.690578        -0.281983
 H         2.873413         0.501137        -1.937085
 H         1.827954         1.790361        -0.991759
 H         4.309202         1.777267         0.185831
 H         2.887657         1.487191         2.216991
 H         4.832287        -0.726104         2.526629
 H         2.989253        -1.597338        -0.792243
 H         2.153217        -2.162673         0.824315
