19
Iteration:  4901charge 0 multiplicity 1
 C         0.174748        -0.546845        -0.652043
 C         1.547791        -0.058328        -0.234618
 C         2.673502         0.903771        -1.101164
 C         3.639874         0.980180         0.031005
 C         2.700750         0.937577         1.416217
 O         1.332990         0.698401         0.944414
 C         3.499224        -0.220122         0.931486
 O         4.647535        -0.876946         1.454781
 C         2.509867        -1.224946         0.234430
 H        -0.025318        -1.658898        -0.530936
 H        -0.558024         0.063632        -0.123600
 H         0.059922        -0.552387        -1.771538
 H         3.032991         0.422256        -2.024734
 H         2.157463         1.922763        -1.255676
 H         4.260478         1.756864         0.308093
 H         2.706759         1.703390         2.156826
 H         4.144533        -1.268517         2.146437
 H         3.098486        -1.469695        -0.636295
 H         2.026907        -2.075960         0.764124
