19
Iteration:  2582charge 0 multiplicity 1
 C         0.268113        -0.428619        -0.824641
 C         1.637994        -0.157074        -0.200348
 C         2.473816         0.822170        -1.023844
 C         3.484044         1.043911         0.083707
 C         2.695595         0.925498         1.355167
 O         1.388269         0.663635         0.979733
 C         3.508565        -0.314828         0.971934
 O         4.628102        -0.793034         1.550149
 C         2.555747        -1.264857         0.123396
 H        -0.406693         0.269148        -0.497421
 H         0.341803        -0.427899        -1.952271
 H        -0.076380        -1.383627        -0.403500
 H         2.884521         0.417693        -1.980055
 H         1.935344         1.730784        -1.230767
 H         4.404183         1.493750         0.223386
 H         2.755240         1.485406         2.282343
 H         4.874055        -0.053309         2.203238
 H         3.050431        -1.637592        -0.792086
 H         2.025088        -2.102185         0.772948
