19
Iteration:  3018charge 0 multiplicity 1
 C         0.299473        -0.564984        -0.927703
 C         1.545753        -0.075374        -0.186860
 C         2.453785         0.901210        -0.984109
 C         3.572090         0.987449         0.094508
 C         2.706455         0.935689         1.401704
 O         1.294060         0.766879         1.008049
 C         3.484589        -0.277813         0.931615
 O         4.688889        -0.888055         1.438182
 C         2.588624        -1.205732         0.259535
 H        -0.194578         0.208961        -1.542631
 H         0.719847        -1.469879        -1.480116
 H        -0.364818        -0.823937        -0.172137
 H         2.774887         0.656426        -1.949828
 H         2.042857         1.928380        -1.023541
 H         4.432612         1.499459         0.097301
 H         2.791559         1.603081         2.297838
 H         4.563928        -1.091648         2.386575
 H         3.046403        -1.616137        -0.706582
 H         2.184922        -2.117752         0.815622
