19
Iteration:   795charge 0 multiplicity 1
 C         0.101740        -0.322470        -0.827794
 C         1.471508        -0.182506        -0.131041
 C         2.441518         0.589029        -1.051487
 C         3.469899         0.877478        -0.028537
 C         2.827502         0.904392         1.322399
 O         1.428363         0.789602         1.016757
 C         3.579347        -0.301608         0.877001
 O         4.823075        -0.696460         1.514193
 C         2.480739        -1.207051         0.328099
 H        -0.792254        -0.190303        -0.156820
 H         0.080692         0.603254        -1.546352
 H        -0.121232        -1.141285        -1.454344
 H         2.873184         0.032465        -1.991564
 H         2.055932         1.499170        -1.334225
 H         4.414563         1.359575        -0.151123
 H         2.976674         1.513801         2.212901
 H         4.556279        -0.435188         2.460890
 H         2.813423        -1.771019        -0.540836
 H         2.197333        -2.006097         1.071364
