19
Iteration:  3550
 C         0.329636        -0.506010        -0.940502
 C         1.520555        -0.037261        -0.159374
 C         2.491259         0.820933        -0.968723
 C         3.559223         1.058239         0.167546
 C         2.644813         0.898385         1.445800
 O         1.377117         0.691543         1.009976
 C         3.541595        -0.259089         0.825941
 O         4.707096        -0.867172         1.409499
 C         2.504214        -1.205751         0.275093
 H        -0.537367         0.056015        -0.753788
 H         0.449929        -0.423898        -2.063757
 H        -0.036403        -1.467939        -0.818827
 H         2.979940         0.226597        -1.774322
 H         1.874240         1.649415        -1.404122
 H         4.319445         1.746336         0.021253
 H         2.717452         1.320957         2.503318
 H         4.773760        -0.721654         2.392959
 H         2.635043        -1.794955        -0.681821
 H         1.922885        -1.771787         1.045987
