19
Iteration:  1456charge 0 multiplicity 1
 C         0.191074        -0.465792        -0.664585
 C         1.605500        -0.158520        -0.165747
 C         2.424429         0.821804        -1.078257
 C         3.543492         0.988015        -0.061307
 C         2.798702         0.934716         1.280076
 O         1.447200         0.747169         0.937125
 C         3.508767        -0.249881         0.924359
 O         4.634004        -0.865976         1.499450
 C         2.528267        -1.192306         0.299461
 H        -0.474094        -0.297120         0.266451
 H        -0.311128         0.169328        -1.489850
 H         0.103596        -1.481005        -0.915957
 H         2.758996         0.298821        -2.015055
 H         1.730885         1.650396        -1.347577
 H         4.545002         1.534935        -0.023885
 H         2.918491         1.528417         2.153885
 H         4.804370        -0.606873         2.425496
 H         2.971719        -1.823037        -0.459492
 H         1.992365        -1.967475         0.933424
