19
Iteration:  2070
 C         0.207469        -0.528818        -0.750919
 C         1.575679        -0.068952        -0.223558
 C         2.467682         0.882826        -1.048701
 C         3.580994         0.973484         0.034056
 C         2.672172         0.945077         1.377823
 O         1.306722         0.630663         1.023976
 C         3.526299        -0.216700         0.925689
 O         4.712834        -0.826279         1.491172
 C         2.582531        -1.142200         0.215967
 H         0.112323        -1.529966        -0.766574
 H        -0.544501        -0.181356        -0.086167
 H        -0.038622        -0.172242        -1.760031
 H         2.963355         0.367821        -1.903295
 H         2.081623         1.907639        -1.218424
 H         4.553352         1.580008        -0.069490
 H         2.882848         1.466470         2.298173
 H         4.549846        -1.819285         1.502939
 H         3.112125        -1.569641        -0.633445
 H         2.196306        -1.810053         0.959957
