19
Iteration:   530charge 0 multiplicity 1
 C         0.104057        -0.234328        -0.799212
 C         1.520825        -0.270696        -0.152326
 C         2.499715         0.544543        -1.058789
 C         3.517462         0.906082        -0.052284
 C         2.801515         0.967863         1.278204
 O         1.442604         0.744564         0.974784
 C         3.578647        -0.224977         0.851835
 O         4.724222        -0.678097         1.541668
 C         2.495305        -1.301841         0.424793
 H        -0.696947        -0.772576        -0.282683
 H        -0.168089         0.766522        -0.716011
 H        -0.029130        -0.386886        -1.957567
 H         2.946091        -0.113801        -1.843335
 H         1.904219         1.300217        -1.546055
 H         4.401983         1.528106        -0.302648
 H         2.922921         1.807122         2.008110
 H         4.500447        -0.723355         2.525652
 H         2.801787        -2.008956        -0.367283
 H         2.083318        -1.858683         1.239199
