19
Iteration:  1007charge 0 multiplicity 1
 C         0.192781        -0.615820        -0.708396
 C         1.559028        -0.060254        -0.170073
 C         2.497526         0.765324        -1.087174
 C         3.593475         0.965983        -0.024919
 C         2.810026         1.073015         1.278448
 O         1.426107         0.769008         1.049831
 C         3.498468        -0.229894         0.870013
 O         4.630430        -0.828345         1.518306
 C         2.458681        -1.167581         0.297743
 H        -0.415046        -0.619850         0.171490
 H        -0.203112         0.070011        -1.448919
 H         0.258146        -1.754818        -0.971523
 H         2.746818         0.185137        -1.986465
 H         2.007116         1.744383        -1.388026
 H         4.451256         1.483002        -0.248884
 H         3.143023         1.786809         2.046940
 H         4.301585        -1.738196         1.785677
 H         2.948891        -1.781329        -0.527933
 H         2.076804        -1.941163         0.940490
