19
Iteration:  1209charge 0 multiplicity 1
 C         0.173149        -0.410036        -0.681292
 C         1.565764        -0.133243        -0.210502
 C         2.495031         0.841554        -1.081358
 C         3.596461         0.899910        -0.068572
 C         2.789334         0.870207         1.271246
 O         1.399242         0.674846         1.020756
 C         3.573173        -0.345476         0.813972
 O         4.581557        -0.612269         1.591809
 C         2.491035        -1.261507         0.336149
 H        -0.536860        -0.175136         0.190891
 H         0.011099         0.319450        -1.426499
 H         0.096388        -1.338936        -1.232275
 H         2.704443         0.380195        -2.039576
 H         1.848852         1.753193        -1.287027
 H         4.423857         1.493661        -0.089533
 H         3.190422         1.313172         2.224289
 H         5.135757        -1.397785         1.305926
 H         2.618512        -2.028651        -0.393254
 H         2.143908        -1.610602         1.320279
