19
Iteration:  1960
 C         0.301022        -0.542175        -0.771441
 C         1.565551        -0.031456        -0.165944
 C         2.517728         0.843408        -0.982723
 C         3.523772         1.068608         0.128149
 C         2.668219         0.844475         1.422779
 O         1.313240         0.721919         1.040897
 C         3.534371        -0.302175         0.781886
 O         4.714667        -0.761342         1.353730
 C         2.506107        -1.207584         0.273243
 H        -0.323348        -0.961694        -0.076579
 H        -0.166107         0.207742        -1.343699
 H         0.565213        -1.400807        -1.450177
 H         2.944911         0.338947        -1.834964
 H         2.123375         1.764129        -1.382967
 H         4.397049         1.625369         0.083874
 H         2.940716         1.398610         2.330448
 H         4.407560        -1.615262         1.601482
 H         2.792492        -1.783514        -0.596191
 H         2.007232        -1.768435         1.051433
