19
Iteration:  4930
 C         0.258340        -0.551030        -0.891465
 C         1.535761        -0.000549        -0.232710
 C         2.477601         0.838250        -1.015132
 C         3.532260         0.972533         0.089427
 C         2.788573         0.918201         1.396266
 O         1.334849         0.828844         1.000627
 C         3.527572        -0.320246         0.867431
 O         4.777097        -0.792290         1.442003
 C         2.417372        -1.260281         0.366534
 H         0.272843        -1.605593        -0.675613
 H        -0.603654        -0.088188        -0.446914
 H         0.202554        -0.327839        -1.981034
 H         2.970987         0.082201        -1.770684
 H         2.027405         1.726902        -1.280491
 H         4.454726         1.675280         0.119421
 H         2.937430         1.331217         2.344255
 H         4.404295        -1.540850         1.965174
 H         2.839851        -1.917713        -0.438882
 H         1.793524        -1.828051         1.043795
