19
Iteration:  3578charge 0 multiplicity 1
 C         0.280945        -0.581989        -0.919331
 C         1.553529         0.008197        -0.240906
 C         2.468067         1.013868        -1.034452
 C         3.563971         0.975360         0.087350
 C         2.741948         0.943576         1.382549
 O         1.349598         0.648438         1.119436
 C         3.497768        -0.306843         0.906180
 O         4.670026        -0.874288         1.507092
 C         2.550479        -1.219785         0.206707
 H        -0.499055         0.261728        -0.940296
 H         0.396203        -1.006197        -1.937797
 H        -0.231548        -1.536411        -0.380773
 H         2.858404         0.680869        -2.065445
 H         1.969566         1.914998        -1.342291
 H         4.428400         1.651470         0.002036
 H         2.950461         1.375816         2.323300
 H         4.637266        -0.767235         2.441558
 H         2.878817        -1.793964        -0.626125
 H         1.956177        -1.914767         0.776667
