19
Iteration:   548
 C         0.144413        -0.340010        -0.752188
 C         1.509800        -0.081318        -0.167274
 C         2.533666         0.588724        -1.162932
 C         3.535494         0.983639        -0.106412
 C         2.787481         0.943763         1.252707
 O         1.391994         0.772229         1.046741
 C         3.496658        -0.352236         0.899057
 O         4.755268        -0.708114         1.536355
 C         2.467745        -1.250594         0.421944
 H        -0.545860        -0.885471        -0.044592
 H        -0.320271         0.565063        -1.230528
 H         0.364428        -1.038343        -1.557979
 H         2.843375        -0.165164        -1.863710
 H         2.174525         1.523764        -1.749645
 H         4.511022         1.685903        -0.177747
 H         3.192379         1.329859         2.185366
 H         4.446230        -0.786303         2.484118
 H         2.797488        -2.056233        -0.302176
 H         2.017518        -1.853088         1.235213
