19
Iteration:  2755charge 0 multiplicity 1
 C         0.326007        -0.616668        -0.851657
 C         1.563583        -0.020128        -0.190626
 C         2.577151         0.906178        -1.020290
 C         3.575872         1.095892         0.132588
 C         2.663857         0.909041         1.354978
 O         1.333816         0.681730         1.045535
 C         3.544177        -0.266963         0.841944
 O         4.625858        -0.850850         1.446656
 C         2.448887        -1.155978         0.236579
 H        -0.198613        -0.062767        -1.644011
 H         0.636153        -1.714660        -1.198079
 H        -0.362620        -0.958990         0.029994
 H         2.959243         0.290849        -1.824796
 H         2.187125         1.934843        -1.468383
 H         4.536614         1.593172         0.110426
 H         2.889210         1.387423         2.332192
 H         4.310483        -1.142795         2.297744
 H         2.907796        -1.790530        -0.494752
 H         1.920585        -1.797049         0.867549
