19
Iteration:   545
 C         0.123860        -0.324939        -0.772489
 C         1.505830        -0.116350        -0.163248
 C         2.516618         0.573242        -1.162772
 C         3.538761         1.005615        -0.098394
 C         2.791885         0.937757         1.247614
 O         1.393985         0.780024         1.050920
 C         3.520840        -0.358671         0.903415
 O         4.738166        -0.697146         1.532981
 C         2.483108        -1.262892         0.431381
 H        -0.551624        -0.859779        -0.108957
 H        -0.293540         0.745131        -1.143949
 H         0.305430        -0.942465        -1.607749
 H         3.003693        -0.196939        -1.974813
 H         2.167514         1.459490        -1.700610
 H         4.399469         1.625769        -0.177026
 H         3.214182         1.327689         2.148481
 H         4.473403        -0.775273         2.493328
 H         2.839794        -2.008597        -0.272139
 H         2.095106        -1.897586         1.301776
