19
Iteration:  1773
 C         0.143201        -0.356684        -0.670884
 C         1.610096        -0.180674        -0.239936
 C         2.437192         0.791806        -1.038228
 C         3.547617         0.906526         0.012748
 C         2.755002         0.937220         1.354728
 O         1.421495         0.715437         0.895882
 C         3.513095        -0.317729         0.863444
 O         4.642907        -0.778688         1.598858
 C         2.581450        -1.276883         0.214381
 H        -0.158934        -1.345192        -0.210532
 H        -0.333116         0.430567        -0.134187
 H        -0.207860        -0.361506        -1.730625
 H         2.591626         0.373653        -2.057166
 H         1.882345         1.659467        -1.149843
 H         4.428449         1.627050        -0.044016
 H         2.899960         1.550647         2.259525
 H         5.207457        -0.050521         1.743869
 H         3.095305        -1.777720        -0.574487
 H         2.051521        -1.903143         0.951427
