19
Iteration:  1024
 C         0.208678        -0.568177        -0.590264
 C         1.498568        -0.077976        -0.184272
 C         2.438892         0.762187        -1.084985
 C         3.564675         0.897037        -0.048647
 C         2.838618         0.955686         1.320782
 O         1.461954         0.846925         0.945706
 C         3.436905        -0.275508         0.933159
 O         4.623022        -0.755981         1.552314
 C         2.569657        -1.158266         0.223551
 H        -0.587036        -0.832723         0.189758
 H        -0.272426        -0.001887        -1.416930
 H         0.412138        -1.472615        -1.046655
 H         2.944514         0.231568        -1.992413
 H         2.001172         1.666679        -1.393947
 H         4.659269         1.366988        -0.205786
 H         2.834605         1.559881         2.194673
 H         4.572447        -1.755661         1.583428
 H         3.031773        -1.578488        -0.658651
 H         1.910994        -1.802181         0.877732
