19
Iteration:   318
 C         0.181054        -0.729215        -0.707842
 C         1.509012        -0.018181        -0.186173
 C         2.581106         0.752961        -1.040588
 C         3.632160         0.898149        -0.073970
 C         2.860512         1.068824         1.211104
 O         1.369498         0.912158         1.060178
 C         3.544651        -0.251241         0.903863
 O         4.649495        -0.867863         1.508058
 C         2.358072        -1.144287         0.323600
 H        -0.186268        -1.132136         0.208257
 H        -0.575841         0.075409        -1.102573
 H         0.334913        -1.392084        -1.503607
 H         2.811828         0.097472        -1.849200
 H         2.183139         1.642140        -1.582921
 H         4.606942         1.440500        -0.326145
 H         3.242892         1.780432         2.003939
 H         4.270989        -1.373165         2.229341
 H         2.697885        -1.756695        -0.485725
 H         1.850737        -1.760634         1.085515
