19
Iteration:   452
 C         0.256118        -0.629782        -0.614784
 C         1.532822        -0.060944        -0.226209
 C         2.501085         0.726623        -1.197678
 C         3.572881         0.885432        -0.053448
 C         2.786704         1.083724         1.278944
 O         1.407193         0.935049         1.001357
 C         3.567952        -0.251893         0.929397
 O         4.600723        -0.949718         1.488301
 C         2.463319        -1.161518         0.396284
 H        -0.165417        -1.449614         0.035944
 H        -0.460733         0.080545        -0.761858
 H         0.292737        -0.952927        -1.728087
 H         2.836389         0.180034        -2.040962
 H         2.125164         1.784386        -1.450150
 H         4.468301         1.642639        -0.219560
 H         3.003081         1.981103         1.807706
 H         4.275510        -1.189184         2.349353
 H         2.882947        -1.996020        -0.218824
 H         1.984505        -1.698122         1.167412
