19
Iteration:  4664charge 0 multiplicity 1
 C         0.286496        -0.534151        -0.938809
 C         1.566724        -0.093647        -0.225181
 C         2.549094         0.914517        -0.973670
 C         3.508956         0.981171         0.156491
 C         2.662398         0.919421         1.427190
 O         1.303819         0.728100         1.047842
 C         3.488253        -0.280136         0.930078
 O         4.807948        -0.868095         1.326020
 C         2.443745        -1.162628         0.287881
 H         0.170437        -1.635998        -1.094585
 H        -0.496422        -0.200543        -0.294848
 H         0.284568        -0.121825        -1.965021
 H         3.075785         0.398819        -1.850694
 H         2.054074         1.826924        -1.341041
 H         4.383052         1.696184         0.035092
 H         2.859108         1.321748         2.435689
 H         4.684966        -1.105181         2.290098
 H         2.790111        -1.961199        -0.355781
 H         1.876222        -1.668768         1.115160
