19
Iteration:  1710
 C         0.247442        -0.519810        -0.799474
 C         1.530586        -0.172788        -0.154281
 C         2.451433         0.879304        -1.026779
 C         3.544490         1.028894         0.025980
 C         2.832845         1.004088         1.303039
 O         1.416726         0.745685         0.979264
 C         3.506773        -0.257435         0.915971
 O         4.674577        -0.809394         1.432992
 C         2.481098        -1.266532         0.400900
 H        -0.511050        -0.764661        -0.067765
 H        -0.041229         0.336852        -1.355845
 H         0.142021        -1.456607        -1.508781
 H         2.741560         0.446631        -1.930343
 H         1.816718         1.895336        -1.216437
 H         4.539807         1.550714        -0.173090
 H         2.962310         1.550873         2.241243
 H         4.469501        -1.715744         1.533637
 H         2.819535        -2.009707        -0.365199
 H         2.007011        -1.912623         1.190801
