19
Iteration:  3216charge 0 multiplicity 1
 C         0.246395        -0.384370        -0.826128
 C         1.586373        -0.101368        -0.278806
 C         2.455805         0.889914        -0.998550
 C         3.515094         1.040080         0.185261
 C         2.701798         0.851844         1.386252
 O         1.325314         0.572805         0.957304
 C         3.556309        -0.305575         0.830239
 O         4.702115        -0.714501         1.562172
 C         2.573113        -1.282816         0.166911
 H         0.083164         0.546782        -1.490039
 H         0.169642        -1.272089        -1.393168
 H        -0.468408        -0.407616        -0.004257
 H         3.071669         0.546676        -1.845509
 H         1.862654         1.830707        -1.202884
 H         4.484183         1.596343        -0.058471
 H         2.857478         1.199508         2.427902
 H         4.367055        -1.210315         2.281786
 H         3.019537        -1.883199        -0.670636
 H         2.033840        -1.930677         0.986896
