19
Iteration:   627
 C         0.126291        -0.461160        -0.695413
 C         1.482151        -0.055521        -0.198566
 C         2.577441         0.655295        -1.133017
 C         3.665155         0.938085        -0.094113
 C         2.781780         1.006685         1.241281
 O         1.405400         0.720723         1.091861
 C         3.508353        -0.243420         0.880073
 O         4.655902        -0.761538         1.531663
 C         2.486349        -1.193179         0.339909
 H        -0.480333        -0.678163         0.181719
 H        -0.375126         0.252631        -1.254338
 H         0.152192        -1.419271        -1.324437
 H         2.933062        -0.036013        -1.801878
 H         2.321671         1.590482        -1.689532
 H         4.381813         1.644610        -0.280603
 H         2.969582         1.672002         2.088533
 H         4.293869        -1.280897         2.313746
 H         2.845505        -1.859461        -0.476409
 H         1.988686        -1.745141         1.113016
