19
Iteration:  3403
 C         0.282381        -0.481363        -0.928894
 C         1.596404        -0.085767        -0.225023
 C         2.546710         0.862288        -0.976060
 C         3.500647         1.013748         0.186386
 C         2.690723         0.855885         1.430930
 O         1.324614         0.730680         1.065099
 C         3.514289        -0.300579         0.857415
 O         4.666474        -0.816784         1.459435
 C         2.507341        -1.278232         0.210460
 H        -0.094037         0.349573        -1.610242
 H         0.317737        -1.249411        -1.633214
 H        -0.614066        -0.735629        -0.293772
 H         3.089362         0.267281        -1.806865
 H         1.914677         1.700582        -1.328378
 H         4.351189         1.752108         0.251071
 H         2.865362         1.369886         2.394562
 H         5.294612        -0.150907         1.678900
 H         2.920495        -1.737914        -0.677810
 H         1.969330        -1.981358         0.904205
