19
Iteration:   837charge 0 multiplicity 1
 C         0.179156        -0.454315        -0.692927
 C         1.543994        -0.138633        -0.189813
 C         2.517487         0.743885        -1.124021
 C         3.594806         0.897220         0.018557
 C         2.763937         0.969850         1.320819
 O         1.376017         0.741283         0.967965
 C         3.558826        -0.314129         0.814086
 O         4.713488        -0.741990         1.447585
 C         2.406447        -1.178374         0.393842
 H        -0.436229        -0.581936         0.170998
 H        -0.127027         0.501847        -1.246834
 H         0.211660        -1.268592        -1.288093
 H         2.997516         0.137992        -1.949903
 H         1.957544         1.654120        -1.412827
 H         4.382269         1.600690        -0.171162
 H         3.165244         1.417547         2.226727
 H         4.502506        -0.947502         2.383567
 H         2.732302        -1.930051        -0.264029
 H         1.946587        -1.634808         1.334780
