19
Iteration:  1053charge 0 multiplicity 1
 C         0.091338        -0.456096        -0.638032
 C         1.507627        -0.105649        -0.234693
 C         2.553580         0.737832        -1.085014
 C         3.586046         0.960896        -0.030736
 C         2.792864         0.922039         1.231603
 O         1.371933         0.748376         0.979797
 C         3.587390        -0.316063         0.789946
 O         4.722701        -0.704821         1.669523
 C         2.456828        -1.233585         0.296397
 H        -0.369066        -1.010635         0.177758
 H        -0.446721         0.515208        -0.947077
 H         0.122916        -1.241718        -1.427682
 H         3.035566         0.328746        -1.891448
 H         2.080530         1.753993        -1.403949
 H         4.397290         1.717722        -0.111262
 H         2.896765         1.650562         2.060616
 H         4.968842        -1.615832         1.351202
 H         2.569465        -2.117612        -0.378873
 H         1.864047        -1.541498         1.158374
