19
Iteration:  1645charge 0 multiplicity 1
 C         0.117029        -0.391282        -0.685685
 C         1.548063        -0.149419        -0.217651
 C         2.511510         0.728906        -1.042531
 C         3.579765         0.964755        -0.037460
 C         2.781248         0.890163         1.299822
 O         1.403279         0.708293         1.011534
 C         3.529934        -0.300093         0.840681
 O         4.594209        -0.752931         1.545243
 C         2.520349        -1.250975         0.279619
 H        -0.446072        -0.443804         0.238732
 H        -0.189798         0.530319        -1.126677
 H         0.094443        -1.306631        -1.395819
 H         2.974567         0.314169        -1.891058
 H         2.209570         1.840268        -1.364281
 H         4.469004         1.550879        -0.245411
 H         3.128397         1.342324         2.217203
 H         5.209473         0.032871         1.681550
 H         2.916144        -1.962478        -0.482318
 H         2.150265        -1.852696         1.145813
