19
Iteration:  4579charge 0 multiplicity 1
 C         0.153920        -0.356221        -0.700695
 C         1.610182        -0.111082        -0.373203
 C         2.638008         0.781140        -1.031939
 C         3.519474         0.951845         0.117099
 C         2.698398         0.885032         1.337097
 O         1.308632         0.625729         1.018996
 C         3.572949        -0.298282         0.874433
 O         4.664741        -0.704233         1.562675
 C         2.541766        -1.215753         0.144758
 H        -0.093110        -0.442711        -1.777503
 H        -0.176092        -1.296629        -0.249253
 H        -0.469353         0.383135        -0.245475
 H         3.189933         0.193586        -1.877415
 H         2.086876         1.590405        -1.396546
 H         4.378045         1.714783         0.185887
 H         2.845333         1.692637         2.111688
 H         4.354777        -1.352077         2.232907
 H         2.972788        -1.801054        -0.652884
 H         2.060329        -1.822616         0.876304
