19
Iteration:  3081
 C         0.157394        -0.317711        -0.856049
 C         1.561287        -0.189782        -0.243961
 C         2.520150         0.797672        -0.979716
 C         3.589116         0.973168         0.117190
 C         2.674693         0.909622         1.356511
 O         1.351253         0.615795         0.939795
 C         3.553891        -0.268316         0.960218
 O         4.692009        -0.663651         1.568830
 C         2.593782        -1.312760         0.157441
 H        -0.415235         0.395165        -0.410701
 H         0.014211        -0.279047        -1.962002
 H        -0.350841        -1.253064        -0.623787
 H         2.886097         0.508832        -1.907492
 H         1.859489         1.736163        -1.144697
 H         4.414030         1.569595         0.071360
 H         2.956264         1.467344         2.281910
 H         4.441062        -1.335623         2.195434
 H         3.133154        -1.859013        -0.674993
 H         2.107445        -2.043708         0.825259
