19
Iteration:  2922
 C         0.224294        -0.508354        -0.904118
 C         1.527948        -0.067384        -0.250066
 C         2.510403         0.915520        -0.976288
 C         3.559709         1.019410         0.131866
 C         2.717194         0.877338         1.332826
 O         1.347941         0.634399         0.993024
 C         3.606317        -0.297573         0.847186
 O         4.673514        -0.789258         1.535619
 C         2.515895        -1.181554         0.269150
 H        -0.290035         0.395244        -1.425073
 H         0.448858        -1.452786        -1.447694
 H        -0.369928        -0.758379        -0.031142
 H         2.898279         0.445278        -2.009571
 H         2.013065         1.841046        -1.237745
 H         4.403558         1.521691        -0.065536
 H         2.785017         1.374722         2.324229
 H         4.389782        -1.096325         2.370683
 H         2.812293        -1.844778        -0.470994
 H         2.164514        -1.792802         1.053195
