19
Iteration:  3709
 C         0.301870        -0.570104        -0.945472
 C         1.549761        -0.023559        -0.255332
 C         2.490164         0.958426        -1.053736
 C         3.512014         1.070930         0.109516
 C         2.737449         0.927561         1.459546
 O         1.304972         0.607338         1.157262
 C         3.499649        -0.325690         0.887050
 O         4.672255        -0.896081         1.429202
 C         2.520948        -1.146765         0.188319
 H        -0.305014         0.280092        -1.205561
 H         0.690685        -1.058979        -1.841379
 H        -0.173689        -1.149305        -0.066500
 H         2.985682         0.358735        -1.818653
 H         2.226718         1.918128        -1.365152
 H         4.308836         1.700841        -0.014592
 H         3.023989         1.447318         2.444633
 H         4.607863        -0.865175         2.440750
 H         3.049788        -1.611833        -0.628201
 H         2.137282        -1.851282         0.920090
