19
Iteration:  3589charge 0 multiplicity 1
 C         0.253952        -0.515031        -0.845128
 C         1.585505        -0.098556        -0.242401
 C         2.437304         0.993733        -0.989393
 C         3.564188         1.024101         0.071463
 C         2.695651         0.901555         1.382165
 O         1.391909         0.639189         1.013438
 C         3.561172        -0.309375         0.899708
 O         4.663947        -0.852567         1.542631
 C         2.515413        -1.204341         0.139552
 H        -0.456279         0.311698        -1.111161
 H         0.572859        -1.026646        -1.769851
 H        -0.216104        -1.233638        -0.032061
 H         2.680809         0.557781        -1.995995
 H         2.026334         1.983846        -0.956624
 H         4.508625         1.526497         0.027922
 H         2.708670         1.448468         2.299058
 H         4.448540        -0.850655         2.460482
 H         2.963605        -1.674831        -0.711956
 H         2.051129        -1.893997         0.827373
