19
Iteration:  4672
 C         0.278114        -0.466497        -0.913239
 C         1.564902        -0.100187        -0.219143
 C         2.566294         0.860263        -0.994717
 C         3.565362         1.104899         0.176142
 C         2.614216         0.971031         1.380639
 O         1.235281         0.701336         1.038089
 C         3.538670        -0.328163         0.895124
 O         4.812107        -0.889194         1.333581
 C         2.469341        -1.251784         0.313348
 H         0.200517        -1.570427        -0.872603
 H        -0.600539        -0.069436        -0.369120
 H         0.111479        -0.032561        -1.948819
 H         3.115049         0.414452        -1.756966
 H         1.876155         1.790597        -1.255584
 H         4.536979         1.556904         0.165900
 H         2.771001         1.340519         2.431045
 H         4.853164        -0.985766         2.311389
 H         2.895181        -1.887693        -0.520186
 H         1.857664        -1.783073         1.131554
