19
Iteration:   172charge 0 multiplicity 1
 C         0.179262        -0.628254        -0.642492
 C         1.513964         0.027637        -0.175066
 C         2.518397         0.765112        -1.066628
 C         3.595042         0.965654        -0.059022
 C         2.762629         1.070170         1.259004
 O         1.362655         0.839537         0.955657
 C         3.552708        -0.273821         0.959942
 O         4.699805        -0.966067         1.473975
 C         2.488097        -1.092680         0.338707
 H        -0.610580        -0.806084         0.207749
 H        -0.281529        -0.237415        -1.565298
 H         0.572930        -1.723342        -0.947106
 H         2.923367        -0.098120        -1.787585
 H         2.235444         1.581188        -1.650078
 H         4.316590         1.661347        -0.095467
 H         3.011145         1.987849         1.893457
 H         4.347137        -1.547515         2.220475
 H         2.840711        -1.714414        -0.567514
 H         1.864922        -1.830835         0.970428
