19
Iteration:   650charge 0 multiplicity 1
 C         0.144615        -0.292956        -0.761091
 C         1.497931        -0.173908        -0.153722
 C         2.468146         0.593102        -1.108106
 C         3.545717         0.874976        -0.041053
 C         2.801594         0.913861         1.264591
 O         1.441168         0.768030         0.972563
 C         3.500744        -0.343471         0.914977
 O         4.775815        -0.596286         1.532002
 C         2.473273        -1.285038         0.378389
 H        -0.538677        -0.804766        -0.124551
 H        -0.294993         0.682215        -0.892921
 H         0.135933        -0.805715        -1.780227
 H         2.938436         0.130406        -1.923825
 H         1.979645         1.516824        -1.395166
 H         4.439901         1.394773        -0.194403
 H         3.002422         1.515462         2.146818
 H         4.508536        -0.771108         2.440848
 H         2.812976        -1.921959        -0.441736
 H         1.905156        -1.876987         1.090221
