19
Iteration:   635charge 0 multiplicity 1
 C         0.082228        -0.410018        -0.723653
 C         1.517159        -0.070830        -0.181390
 C         2.573133         0.686768        -1.143366
 C         3.592078         0.906116        -0.058226
 C         2.820754         0.986975         1.283832
 O         1.403174         0.703540         1.060628
 C         3.515350        -0.248263         0.856259
 O         4.665430        -0.695209         1.536438
 C         2.484146        -1.267599         0.368397
 H        -0.686949        -0.782631         0.040480
 H        -0.327389         0.509402        -1.163507
 H         0.230342        -1.223098        -1.457488
 H         2.743031        -0.161095        -1.889747
 H         2.234104         1.550107        -1.899823
 H         4.644515         1.376719        -0.284846
 H         3.036308         1.720780         2.072380
 H         4.503432        -1.163487         2.418773
 H         2.920493        -1.849142        -0.514845
 H         2.125593        -1.858595         1.233247
