19
Iteration:  4631charge 0 multiplicity 1
 C         0.308056        -0.558924        -0.906932
 C         1.521609        -0.086438        -0.196590
 C         2.497676         0.926905        -0.941513
 C         3.556231         0.994157         0.038749
 C         2.765011         0.965963         1.334116
 O         1.323376         0.739627         1.105673
 C         3.534552        -0.319936         0.870634
 O         4.695984        -0.776619         1.543133
 C         2.460591        -1.230791         0.198512
 H         0.442841        -1.590845        -1.319424
 H        -0.600919        -0.543225        -0.340583
 H         0.067396         0.184523        -1.721590
 H         2.743650         0.432470        -1.938813
 H         2.129621         1.914246        -1.260936
 H         4.532205         1.484772        -0.095383
 H         2.929868         1.140139         2.427308
 H         4.534445        -1.729679         1.776228
 H         2.659134        -1.804038        -0.706268
 H         2.065330        -1.934374         0.970893
