19
Iteration:   457charge 0 multiplicity 1
 C         0.284331        -0.657454        -0.617096
 C         1.546583        -0.043422        -0.166123
 C         2.508883         0.750082        -1.160806
 C         3.577887         0.916665        -0.049895
 C         2.794678         1.031049         1.246389
 O         1.392684         0.963000         0.965987
 C         3.545363        -0.264905         0.858914
 O         4.601717        -0.929152         1.503372
 C         2.423831        -1.178869         0.412298
 H        -0.022517        -1.491373        -0.016021
 H        -0.550120         0.177877        -0.621701
 H         0.322225        -0.890821        -1.672711
 H         2.882913         0.113457        -2.072085
 H         2.180369         1.694582        -1.528267
 H         4.393697         1.552925        -0.185385
 H         3.064179         1.898918         1.901697
 H         4.396830        -1.258379         2.430710
 H         2.842243        -1.881708        -0.316625
 H         1.939133        -1.844057         1.210409
