19
Iteration:  3079charge 0 multiplicity 1
 C         0.167333        -0.344614        -0.854656
 C         1.555430        -0.184995        -0.246384
 C         2.521064         0.809980        -0.989004
 C         3.585714         0.966966         0.104811
 C         2.663059         0.898522         1.353597
 O         1.348936         0.609564         0.948279
 C         3.566705        -0.277645         0.964853
 O         4.694112        -0.668665         1.569226
 C         2.584230        -1.287659         0.161741
 H        -0.408128         0.490135        -0.410855
 H         0.005535        -0.234354        -1.925179
 H        -0.362194        -1.336488        -0.575240
 H         2.963506         0.487983        -2.007608
 H         1.931523         1.790391        -1.137326
 H         4.453189         1.670244         0.119068
 H         2.971056         1.497964         2.243217
 H         4.407138        -1.395450         2.219464
 H         3.086834        -1.810134        -0.629586
 H         2.081361        -1.940070         0.812106
