19
Iteration:  1909charge 0 multiplicity 1
 C         0.184034        -0.395052        -0.757395
 C         1.562605        -0.170953        -0.147262
 C         2.374281         0.816237        -0.990686
 C         3.600107         1.028104         0.031635
 C         2.727644         0.892598         1.345049
 O         1.359322         0.677657         1.028379
 C         3.617277        -0.341279         0.811814
 O         4.622306        -0.791457         1.617475
 C         2.591878        -1.247921         0.131315
 H        -0.652067        -0.227768        -0.004547
 H         0.066587         0.342365        -1.654864
 H        -0.035713        -1.477917        -1.152578
 H         2.521076         0.426626        -1.965723
 H         1.864475         1.884909        -1.117080
 H         4.323361         1.788775        -0.127743
 H         2.967794         1.269155         2.359278
 H         5.459914        -0.326968         1.315042
 H         3.079158        -1.436184        -0.881104
 H         2.339893        -2.168549         0.739994
