19
Iteration:  4204
 C         0.243026        -0.433346        -0.956200
 C         1.566077        -0.071047        -0.179947
 C         2.418518         0.988280        -0.932632
 C         3.539346         1.062218         0.106052
 C         2.704962         0.846680         1.448711
 O         1.337651         0.453093         1.091313
 C         3.579437        -0.284136         0.841881
 O         4.734448        -0.790818         1.503637
 C         2.524858        -1.231122         0.061018
 H        -0.649130         0.131093        -0.506198
 H         0.383480        -0.031102        -2.037282
 H        -0.076301        -1.471476        -0.974453
 H         2.821315         0.809756        -1.986636
 H         1.882703         1.867406        -0.824530
 H         4.383382         1.623892         0.031503
 H         2.947230         1.309886         2.425448
 H         4.626281        -0.474928         2.466359
 H         2.952444        -1.802091        -0.809236
 H         2.199362        -1.858242         0.957752
