19
Iteration:  2460
 C         0.251835        -0.549069        -0.824085
 C         1.572925        -0.068947        -0.270915
 C         2.516763         0.904934        -0.996525
 C         3.485601         1.112268         0.082149
 C         2.724578         0.815191         1.427285
 O         1.401264         0.628220         0.965028
 C         3.520474        -0.310060         0.887054
 O         4.582137        -0.744258         1.597185
 C         2.571239        -1.152408         0.188760
 H        -0.242002         0.321352        -1.168702
 H         0.443457        -1.287500        -1.607094
 H        -0.318544        -0.889360         0.086777
 H         3.093639         0.451473        -1.852373
 H         1.888102         1.742804        -1.501679
 H         4.391872         1.747245         0.089831
 H         2.961762         1.176778         2.415265
 H         4.872334        -1.544512         1.151193
 H         3.037072        -1.829766        -0.603727
 H         1.950356        -1.806350         1.003598
