19
Iteration:  1132charge 0 multiplicity 1
 C         0.179200        -0.522637        -0.706993
 C         1.578990        -0.141424        -0.289634
 C         2.524233         0.762543        -1.114446
 C         3.529257         0.961758        -0.015621
 C         2.787543         0.973714         1.282266
 O         1.444725         0.783517         1.014152
 C         3.511715        -0.295993         0.894376
 O         4.627809        -0.810872         1.497921
 C         2.411833        -1.212732         0.453776
 H        -0.268843        -1.355938        -0.037383
 H        -0.384153         0.428821        -0.521725
 H         0.230986        -0.715976        -1.743186
 H         2.830702         0.160559        -1.933407
 H         2.272008         1.781357        -1.496562
 H         4.549411         1.492097         0.007246
 H         3.121999         1.528667         2.154132
 H         5.427790        -0.286642         1.195407
 H         2.621241        -2.060984        -0.140552
 H         1.699677        -1.596359         1.205821
