19
Iteration:   581
 C         0.146054        -0.661515        -0.653124
 C         1.532812        -0.099409        -0.247665
 C         2.564818         0.821018        -1.066773
 C         3.617439         0.861029        -0.010167
 C         2.835338         1.025244         1.235836
 O         1.414696         0.934086         0.924089
 C         3.445150        -0.284307         0.928828
 O         4.674999        -0.814593         1.480508
 C         2.445066        -1.211992         0.381508
 H        -0.536935        -0.781699         0.238450
 H        -0.407527        -0.126675        -1.414522
 H         0.292748        -1.670056        -1.080460
 H         2.697013         0.518871        -2.068559
 H         1.983114         1.830582        -1.061929
 H         4.654364         1.416936        -0.113499
 H         3.120547         1.610182         2.121872
 H         4.502988        -1.262958         2.362268
 H         2.907327        -1.820357        -0.458879
 H         1.853265        -1.774576         1.099881
