19
Iteration:  4809
 C         0.186631        -0.457413        -0.914453
 C         1.571809        -0.050238        -0.233225
 C         2.580263         0.845906        -0.990047
 C         3.443171         1.095802         0.240385
 C         2.674741         0.876404         1.427924
 O         1.330564         0.710828         1.032261
 C         3.514392        -0.362294         0.874847
 O         4.777786        -0.777962         1.312819
 C         2.507083        -1.279617         0.303795
 H        -0.706490        -0.430830        -0.321714
 H         0.113893         0.315062        -1.691717
 H         0.289900        -1.414149        -1.347519
 H         3.237738         0.231250        -1.714320
 H         2.104110         1.683073        -1.344973
 H         4.317469         1.709430         0.221150
 H         2.998022         1.406307         2.383535
 H         4.852178        -1.464422         2.017498
 H         2.946439        -2.006802        -0.381645
 H         1.911462        -1.729708         1.071469
