19
Iteration:   392
 C         0.103366        -0.327442        -0.768268
 C         1.499280        -0.099688        -0.202492
 C         2.526276         0.627654        -1.075029
 C         3.593883         0.800448        -0.027128
 C         2.850545         0.816438         1.307892
 O         1.412832         0.792986         1.000355
 C         3.475375        -0.408149         0.922137
 O         4.797529        -0.467511         1.504867
 C         2.375346        -1.287968         0.359637
 H        -0.524700        -0.008001         0.039866
 H        -0.022444         0.519803        -1.602882
 H        -0.046003        -1.361936        -1.053267
 H         2.807199        -0.074856        -1.958970
 H         2.189051         1.452554        -1.626966
 H         4.593595         1.241372        -0.337338
 H         2.981466         1.361455         2.285944
 H         4.635908        -0.757549         2.407533
 H         2.711402        -1.770338        -0.561489
 H         1.763679        -2.014189         1.050902
