19
Iteration:  2668charge 0 multiplicity 1
 C         0.150319        -0.411167        -0.938327
 C         1.476405        -0.137466        -0.194039
 C         2.574649         0.797822        -1.022409
 C         3.523800         1.017599         0.097360
 C         2.731796         0.878752         1.372730
 O         1.326737         0.638964         1.015270
 C         3.557164        -0.296385         0.902630
 O         4.793997        -0.752319         1.567506
 C         2.525884        -1.230119         0.224349
 H        -0.512703         0.413865        -0.923501
 H         0.379531        -0.629774        -2.077369
 H        -0.480553        -1.242950        -0.402880
 H         2.905419         0.239840        -1.844719
 H         2.183594         1.788980        -1.368168
 H         4.274810         1.669466        -0.009793
 H         2.831918         1.501625         2.260218
 H         4.734389        -0.447897         2.530492
 H         2.909830        -1.751383        -0.626428
 H         1.903987        -1.918887         0.761684
