19
Iteration:  3630charge 0 multiplicity 1
 C         0.106934        -0.356634        -0.815693
 C         1.540215        -0.034823        -0.262111
 C         2.595538         0.823345        -1.032535
 C         3.515233         1.089623         0.144858
 C         2.686691         0.810284         1.418111
 O         1.334315         0.487399         1.027169
 C         3.493638        -0.272216         0.866208
 O         4.770849        -0.681746         1.584098
 C         2.555160        -1.224916         0.088021
 H        -0.153667         0.441503        -1.568642
 H         0.234288        -1.295549        -1.250393
 H        -0.574073        -0.447732         0.071752
 H         3.073705         0.350131        -1.814737
 H         2.113505         1.702409        -1.589863
 H         4.594930         1.520361         0.052920
 H         2.865130         1.365294         2.274087
 H         4.472613        -1.512050         2.043451
 H         3.124515        -1.743911        -0.699355
 H         2.181796        -2.041383         0.750303
