19
Iteration:  3610charge 0 multiplicity 1
 C         0.142581        -0.448363        -0.811808
 C         1.629487        -0.127689        -0.248600
 C         2.499874         0.917441        -1.020333
 C         3.531175         1.047340         0.131634
 C         2.705192         0.810353         1.367463
 O         1.323416         0.651245         1.015220
 C         3.611718        -0.329178         0.851795
 O         4.651229        -0.744262         1.559486
 C         2.623612        -1.236850         0.119108
 H        -0.161456         0.533097        -1.247994
 H         0.104284        -1.246971        -1.532516
 H        -0.410338        -0.643273         0.184854
 H         3.025290         0.532244        -1.901719
 H         2.020325         1.866651        -1.260097
 H         4.222960         1.876429         0.139414
 H         2.891784         1.167379         2.346994
 H         4.193111        -1.240350         2.333618
 H         2.931497        -1.721087        -0.790405
 H         2.205308        -1.991084         0.787451
