19
Iteration:    62charge 0 multiplicity 1
 C         0.157200        -0.512084        -0.714361
 C         1.541937        -0.133525        -0.250823
 C         2.530154         0.682018        -1.107033
 C         3.593004         0.952221        -0.087243
 C         2.763680         1.018706         1.285192
 O         1.360223         0.781397         1.041060
 C         3.580240        -0.211556         0.866648
 O         4.705383        -0.842055         1.512585
 C         2.473665        -1.170836         0.438464
 H        -0.287403        -1.280650        -0.007358
 H        -0.473426         0.353576        -0.586806
 H         0.070637        -0.653424        -1.846272
 H         2.808205         0.081250        -2.071689
 H         2.114593         1.596682        -1.501945
 H         4.504415         1.612581        -0.361780
 H         2.940912         1.786356         1.972374
 H         4.427270        -1.372312         2.245450
 H         2.804653        -1.957728        -0.297172
 H         1.905463        -1.450307         1.353560
