19
Iteration:  3339charge 0 multiplicity 1
 C         0.214186        -0.428405        -0.817028
 C         1.546330        -0.092460        -0.259986
 C         2.516666         0.885989        -1.023904
 C         3.584972         1.086341         0.103160
 C         2.697108         0.820474         1.445686
 O         1.376628         0.624844         1.004047
 C         3.580090        -0.293596         0.794267
 O         4.570803        -0.706842         1.626528
 C         2.559061        -1.234834         0.145983
 H        -0.514414         0.217326        -0.305163
 H         0.399673        -0.519258        -1.906171
 H         0.060624        -1.529128        -0.568964
 H         2.932490         0.257267        -1.927648
 H         2.068029         1.777562        -1.417194
 H         4.495591         1.740184         0.029066
 H         2.744324         1.124697         2.515931
 H         4.699418        -1.630331         1.589349
 H         2.947918        -1.761532        -0.774192
 H         2.160014        -2.034855         0.950634
