19
Iteration:  1484
 C         0.037089        -0.385710        -0.710805
 C         1.505030        -0.115605        -0.177328
 C         2.486067         0.793492        -1.051107
 C         3.586887         0.887298        -0.055381
 C         2.788958         0.923258         1.259734
 O         1.394890         0.752315         1.016361
 C         3.602562        -0.345530         0.857737
 O         4.754919        -0.724440         1.612414
 C         2.506738        -1.306267         0.204124
 H        -0.603154        -0.682208         0.071635
 H        -0.543588         0.344333        -1.208494
 H         0.192356        -1.295491        -1.435642
 H         2.824084         0.301468        -2.023862
 H         1.996751         1.738224        -1.254226
 H         4.466621         1.406355        -0.046523
 H         3.092176         1.666194         2.017267
 H         4.759582        -0.189735         2.478185
 H         2.834813        -2.030326        -0.604663
 H         1.967075        -1.874639         0.949857
