19
Iteration:  4593
 C         0.105617        -0.379863        -0.723791
 C         1.580739        -0.125710        -0.275712
 C         2.567886         0.845698        -1.151569
 C         3.542198         1.091715         0.075466
 C         2.672564         0.937230         1.354939
 O         1.406259         0.561385         0.956723
 C         3.500684        -0.297324         0.933022
 O         4.685523        -0.763722         1.626438
 C         2.575522        -1.253062         0.203638
 H        -0.116385        -0.627184        -1.743946
 H        -0.330627        -1.049132         0.051884
 H        -0.276455         0.636850        -0.625152
 H         3.088089         0.284765        -1.893280
 H         2.257175         1.859574        -1.494853
 H         4.465364         1.686092        -0.143724
 H         2.810499         1.283441         2.344155
 H         4.474401        -1.663652         1.987905
 H         3.168124        -1.733471        -0.628846
 H         1.987735        -2.020975         0.752656
