19
Iteration:  4533
 C         0.332341        -0.523314        -1.027061
 C         1.502795        -0.116168        -0.203023
 C         2.472396         0.875968        -0.982248
 C         3.580321         0.956441         0.030074
 C         2.717068         0.925380         1.367896
 O         1.426736         0.742411         1.121691
 C         3.515343        -0.279931         0.924075
 O         4.713255        -0.841302         1.474400
 C         2.400208        -1.235551         0.308147
 H         0.426419        -0.159502        -2.075615
 H         0.064763        -1.565734        -1.089910
 H        -0.706424        -0.202834        -0.668529
 H         2.515040         0.501991        -2.155081
 H         1.893736         1.847710        -0.961669
 H         4.386966         1.587560         0.036078
 H         3.021093         1.756770         2.037842
 H         4.849302        -0.669408         2.473263
 H         2.823181        -1.940692        -0.362136
 H         1.783378        -1.569380         1.145084
