19
Iteration:  2172
 C         0.173529        -0.412856        -0.715818
 C         1.586140        -0.092361        -0.235503
 C         2.533965         0.832733        -1.028168
 C         3.543220         1.091894         0.084752
 C         2.715630         0.788958         1.319278
 O         1.344394         0.564454         1.013995
 C         3.608892        -0.316288         0.753142
 O         4.681800        -0.671415         1.589378
 C         2.545786        -1.203015         0.188795
 H         0.063453        -1.126756        -1.567707
 H        -0.414968        -0.801673         0.112773
 H        -0.322985         0.471918        -0.979975
 H         2.894919         0.293978        -1.887928
 H         2.191364         1.912856        -1.487418
 H         4.159256         1.907141         0.057442
 H         2.857679         1.276083         2.303762
 H         4.208368        -1.460859         2.023643
 H         2.942985        -1.877954        -0.638881
 H         2.059118        -1.907817         0.940280
