19
Iteration:  3700charge 0 multiplicity 1
 C         0.306786        -0.516148        -0.969692
 C         1.564602        -0.052318        -0.292566
 C         2.510529         0.952375        -1.020155
 C         3.497229         1.052162         0.127039
 C         2.715611         0.861323         1.448914
 O         1.293987         0.639149         1.218601
 C         3.565854        -0.274952         0.884701
 O         4.685192        -0.878675         1.399100
 C         2.506159        -1.162745         0.243750
 H        -0.257765         0.207969        -1.587952
 H         0.761975        -1.355294        -1.716197
 H        -0.310087        -1.252885        -0.244168
 H         2.917097         0.545334        -2.037375
 H         1.999767         1.804015        -1.347062
 H         4.463001         1.623126         0.079541
 H         2.898269         1.634148         2.220581
 H         4.761571        -0.904356         2.412177
 H         2.788020        -1.769539        -0.622437
 H         1.844926        -1.774583         0.829964
