19
Iteration:  2799charge 0 multiplicity 1
 C         0.141978        -0.424457        -0.909330
 C         1.495853        -0.021380        -0.268021
 C         2.494887         0.843152        -1.042159
 C         3.535732         0.939767         0.045042
 C         2.669228         0.916833         1.376739
 O         1.322362         0.633787         0.994188
 C         3.563898        -0.338170         0.968414
 O         4.831297        -0.783912         1.618499
 C         2.567410        -1.233565         0.224553
 H        -0.375891         0.516616        -0.886532
 H         0.434362        -0.780151        -1.990856
 H        -0.236730        -1.346911        -0.387153
 H         2.814919         0.318111        -1.975039
 H         2.054113         1.907035        -1.362666
 H         4.434698         1.687778        -0.020023
 H         2.709887         1.656580         2.184297
 H         4.613437        -0.873214         2.536268
 H         2.882427        -1.763102        -0.656003
 H         2.122789        -1.868622         0.943162
