19
Iteration:  3780
 C         0.210920        -0.383445        -0.914864
 C         1.542992        -0.119516        -0.237698
 C         2.549627         0.852146        -0.980611
 C         3.504101         0.989297         0.101645
 C         2.701255         0.848349         1.422599
 O         1.331140         0.552103         1.106720
 C         3.593511        -0.277954         0.844896
 O         4.725521        -0.642975         1.555086
 C         2.494160        -1.266495         0.081487
 H        -0.383506         0.492629        -0.483586
 H         0.340465        -0.261396        -2.041717
 H        -0.160889        -1.270961        -0.505396
 H         2.950275         0.351290        -1.845630
 H         2.043133         1.821568        -1.229161
 H         4.354259         1.626421         0.192359
 H         2.955908         1.325001         2.401870
 H         4.516354        -1.398651         2.195044
 H         2.894459        -1.702190        -0.858803
 H         1.962986        -1.995893         0.707664
