19
Iteration:   215
 C         0.094430        -0.408428        -0.744035
 C         1.490186        -0.143015        -0.139021
 C         2.517404         0.723870        -1.022666
 C         3.617272         0.900954         0.008047
 C         2.844971         0.948121         1.245597
 O         1.475959         0.776792         0.884343
 C         3.509255        -0.330682         0.835528
 O         4.674656        -0.639918         1.507641
 C         2.429476        -1.305901         0.428569
 H        -0.597084        -1.108926        -0.133793
 H        -0.367119         0.558399        -0.822438
 H         0.204371        -1.007330        -1.747375
 H         2.924505         0.175860        -1.933839
 H         2.061149         1.642265        -1.194706
 H         4.482571         1.343806        -0.231805
 H         2.975305         1.726135         2.050939
 H         4.521191        -0.889793         2.433606
 H         2.837960        -2.019663        -0.380961
 H         2.054242        -1.980099         1.265949
