19
Iteration:   896charge 0 multiplicity 1
 C         0.185225        -0.491283        -0.624451
 C         1.560887        -0.117541        -0.213326
 C         2.484708         0.811433        -1.119203
 C         3.604246         0.960288        -0.102277
 C         2.752303         0.997028         1.242416
 O         1.462641         0.749839         0.959059
 C         3.567326        -0.253968         0.830832
 O         4.596514        -0.823111         1.592101
 C         2.490913        -1.187025         0.451074
 H        -0.127542        -1.501203        -0.127943
 H        -0.602908         0.183893        -0.404032
 H         0.118670        -0.709624        -1.791074
 H         2.812985         0.301156        -2.118746
 H         1.911453         1.636332        -1.473232
 H         4.560356         1.588664        -0.337705
 H         3.159218         1.715066         1.927311
 H         4.268224        -1.661841         1.863539
 H         2.728686        -2.053769        -0.303252
 H         2.020299        -1.702413         1.295164
