19
Iteration:  1151
 C         0.221314        -0.508116        -0.625275
 C         1.561848        -0.055901        -0.169699
 C         2.569897         0.761894        -1.072995
 C         3.588627         0.980914        -0.013733
 C         2.768723         1.007839         1.255861
 O         1.371075         0.772478         0.920552
 C         3.553438        -0.234442         0.869145
 O         4.578453        -0.902414         1.532392
 C         2.433559        -1.233564         0.361602
 H        -0.103977        -1.225491         0.125516
 H        -0.529870         0.359442        -0.726588
 H         0.345987        -1.140064        -1.474866
 H         2.841053         0.278661        -1.983083
 H         1.734849         1.620330        -1.287491
 H         4.540782         1.587394        -0.337613
 H         2.869945         1.674136         2.069117
 H         5.434457        -0.636939         1.175143
 H         2.723244        -1.985291        -0.368378
 H         2.115929        -1.832808         1.230930
