19
Iteration:  3665charge 0 multiplicity 1
 C         0.274239        -0.382349        -0.950554
 C         1.578757        -0.111389        -0.214748
 C         2.470254         0.914168        -0.944137
 C         3.508537         1.038797         0.164558
 C         2.699955         0.810410         1.443593
 O         1.253490         0.666820         0.998145
 C         3.557009        -0.324352         0.900973
 O         4.797832        -0.712022         1.389202
 C         2.537273        -1.318406         0.271528
 H         0.001393         0.280207        -1.793911
 H         0.388007        -1.385047        -1.469648
 H        -0.764596        -0.399471        -0.328709
 H         2.994921         0.542223        -1.829867
 H         1.828064         1.746072        -1.019216
 H         4.456000         1.369307         0.074027
 H         2.795035         1.390923         2.419603
 H         4.525168        -1.293755         2.185445
 H         2.935239        -1.845964        -0.586727
 H         2.047937        -1.956863         1.022809
