19
Iteration:  1027charge 0 multiplicity 1
 C         0.188351        -0.562256        -0.602104
 C         1.508838        -0.062083        -0.168607
 C         2.441566         0.768188        -1.097246
 C         3.589087         0.907552        -0.044969
 C         2.820315         0.943562         1.314097
 O         1.450585         0.860425         0.939083
 C         3.437261        -0.302554         0.909609
 O         4.645245        -0.751995         1.570050
 C         2.545954        -1.161705         0.238609
 H        -0.480109        -0.832644         0.221478
 H        -0.260787         0.080171        -1.306605
 H         0.390154        -1.605186        -1.052396
 H         2.951182         0.224397        -2.031349
 H         1.950621         1.680066        -1.415739
 H         4.534611         1.380736        -0.197641
 H         2.828334         1.520282         2.215398
 H         4.620431        -1.740107         1.571964
 H         3.126279        -1.645162        -0.644747
 H         1.967823        -1.907567         0.831958
