19
Iteration:  4841charge 0 multiplicity 1
 C         0.233076        -0.350508        -0.913745
 C         1.515072        -0.054530        -0.190401
 C         2.458997         0.897390        -0.950290
 C         3.558406         0.862567        -0.017280
 C         2.720916         0.830914         1.383367
 O         1.314300         0.591204         1.116005
 C         3.530035        -0.349799         0.851735
 O         4.743638        -0.680791         1.506051
 C         2.574267        -1.254290         0.213006
 H        -0.569892        -0.591907        -0.250716
 H        -0.028340         0.562191        -1.508801
 H         0.419937        -1.015491        -1.710524
 H         2.679787         0.592445        -2.085170
 H         2.003897         1.882005        -0.969509
 H         4.556365         1.313647        -0.102789
 H         2.980324         1.513902         2.274830
 H         4.558317        -0.833224         2.478276
 H         2.974122        -1.929265        -0.564582
 H         1.947723        -1.804311         0.900301
