19
Iteration:   241charge 0 multiplicity 1
 C         0.166215        -0.230183        -0.764354
 C         1.527474        -0.097868        -0.223538
 C         2.450413         0.534789        -1.186336
 C         3.526766         0.822282        -0.123920
 C         2.767476         0.880293         1.254266
 O         1.336372         0.707365         1.092227
 C         3.590167        -0.272636         0.963304
 O         4.801523        -0.664151         1.618573
 C         2.484524        -1.220180         0.350053
 H        -0.401829        -1.033412        -0.390986
 H        -0.330142         0.806640        -0.395266
 H         0.176035        -0.264198        -1.838399
 H         2.697432        -0.333345        -1.810933
 H         2.084305         1.465497        -1.817760
 H         4.306975         1.680677        -0.498630
 H         3.042773         1.714615         1.810323
 H         4.716548        -0.780793         2.563747
 H         2.991851        -1.846824        -0.321782
 H         1.895386        -1.857771         1.026363
