19
Iteration:  2414charge 0 multiplicity 1
 C         0.180919        -0.330336        -0.945311
 C         1.506901        -0.135902        -0.291959
 C         2.427860         0.753298        -1.027615
 C         3.506986         1.034387         0.057456
 C         2.710257         0.780356         1.437321
 O         1.382471         0.641972         0.990825
 C         3.581195        -0.316955         0.895873
 O         4.732471        -0.740173         1.634462
 C         2.571920        -1.262180         0.287088
 H        -0.589744         0.450122        -0.584015
 H         0.296625        -0.278081        -1.997104
 H        -0.211065        -1.283347        -0.586157
 H         2.754406         0.370715        -1.939814
 H         2.035500         1.829049        -1.374744
 H         4.305403         1.683131        -0.040157
 H         2.903210         1.398450         2.336235
 H         5.256532         0.106245         1.794705
 H         3.082384        -1.719838        -0.653589
 H         2.032139        -2.025763         1.020192
