19
Iteration:  4717
 C         0.175307        -0.336568        -0.870729
 C         1.584004        -0.060245        -0.306761
 C         2.512619         0.884961        -1.112305
 C         3.529742         1.051992         0.092250
 C         2.744976         0.832372         1.398923
 O         1.377707         0.551430         1.147442
 C         3.523915        -0.350005         0.843796
 O         4.692760        -0.758601         1.589721
 C         2.535286        -1.279158         0.161869
 H        -0.177497        -1.208158        -0.245822
 H        -0.399188         0.567842        -0.670947
 H         0.160005        -0.579085        -1.978040
 H         2.679510         0.238300        -1.913475
 H         1.863598         1.841253        -1.252130
 H         4.561537         1.488004        -0.119642
 H         2.924371         1.411733         2.327614
 H         4.476024        -0.351461         2.481831
 H         2.951146        -1.660404        -0.801969
 H         2.104171        -2.117297         0.824738
