19
Iteration:   739charge 0 multiplicity 1
 C         0.141277        -0.637144        -0.626606
 C         1.519926        -0.082698        -0.242413
 C         2.484275         0.792803        -1.087133
 C         3.652381         0.925065        -0.067530
 C         2.790028         1.017581         1.283686
 O         1.371495         0.918891         0.883751
 C         3.543277        -0.241055         0.928363
 O         4.684010        -0.918076         1.536454
 C         2.505903        -1.184844         0.362920
 H        -0.078223        -1.344719         0.146294
 H        -0.584736         0.275900        -0.530810
 H         0.194816        -1.060127        -1.602468
 H         2.792160         0.297497        -2.056307
 H         2.097088         1.785782        -1.234852
 H         4.517591         1.728538        -0.101037
 H         2.950780         1.713794         2.120870
 H         4.220020        -1.664110         1.930445
 H         2.933216        -1.876310        -0.319514
 H         1.966474        -1.696152         1.228694
