19
Iteration:  2942
 C         0.083649        -0.383071        -0.885737
 C         1.568886        -0.104128        -0.290206
 C         2.530287         0.848311        -1.059502
 C         3.566730         0.947251         0.099569
 C         2.685471         0.876595         1.396099
 O         1.345203         0.590785         1.028106
 C         3.512684        -0.306778         0.984533
 O         4.808634        -0.691308         1.597751
 C         2.541139        -1.248582         0.155491
 H        -0.009628         0.501438        -1.590970
 H         0.065263        -1.473680        -1.304629
 H        -0.679013        -0.403438        -0.167111
 H         2.789691         0.440241        -2.127534
 H         2.007016         1.813322        -1.312116
 H         4.304469         1.704057         0.065610
 H         2.970480         1.636237         2.162510
 H         4.628504        -1.268572         2.361504
 H         3.192609        -1.618292        -0.640279
 H         1.945149        -2.037965         0.669736
