19
Iteration:  2409
 C         0.163171        -0.333140        -0.929952
 C         1.525392        -0.120972        -0.292734
 C         2.449327         0.778366        -1.052465
 C         3.509403         1.020114         0.051083
 C         2.698991         0.770704         1.478881
 O         1.387911         0.653042         1.002253
 C         3.578695        -0.307152         0.868607
 O         4.708820        -0.715501         1.588463
 C         2.554606        -1.277768         0.313901
 H        -0.511008         0.447720        -0.528796
 H         0.341874        -0.292299        -2.060706
 H        -0.042147        -1.398848        -0.671659
 H         2.926205         0.358307        -2.028137
 H         1.919698         1.604929        -1.370514
 H         4.443961         1.734399         0.061683
 H         2.892578         1.306546         2.399249
 H         5.147713         0.037993         1.948511
 H         3.034178        -1.940270        -0.395442
 H         2.078309        -1.984341         0.878560
