19
Iteration:  2617charge 0 multiplicity 1
 C         0.231409        -0.665565        -0.869300
 C         1.516437        -0.069384        -0.280528
 C         2.547459         0.941497        -1.074979
 C         3.582580         1.118922         0.144988
 C         2.731877         0.929256         1.337917
 O         1.389983         0.673834         1.046477
 C         3.567972        -0.250815         0.868204
 O         4.609504        -0.975310         1.557605
 C         2.515561        -1.078352         0.241958
 H        -0.687415        -0.251152        -0.430101
 H         0.068719        -0.746221        -1.924015
 H         0.239518        -1.652819        -0.574216
 H         3.015716         0.381416        -1.996912
 H         1.946890         1.730286        -1.394338
 H         4.276976         1.904679         0.056083
 H         2.932671         1.595505         2.187014
 H         4.935374        -0.509237         2.412204
 H         2.678813        -1.859450        -0.519897
 H         1.821098        -1.636564         1.027697
