19
Iteration:   284
 C         0.200355        -0.472263        -0.678214
 C         1.560907        -0.137541        -0.232515
 C         2.503023         0.723947        -1.067369
 C         3.562488         0.892169        -0.045800
 C         2.819710         0.936659         1.257431
 O         1.424851         0.908240         0.881821
 C         3.493128        -0.327753         0.888895
 O         4.704330        -0.730417         1.533456
 C         2.418852        -1.282231         0.419088
 H        -0.174111        -1.383287        -0.245596
 H        -0.438432         0.396341        -0.184826
 H         0.027311        -0.641361        -1.717797
 H         2.855479         0.146860        -1.947002
 H         1.964286         1.640398        -1.249689
 H         4.537743         1.522296        -0.208325
 H         3.055397         1.617402         2.025611
 H         4.432536        -1.069188         2.373290
 H         2.679272        -2.030118        -0.311407
 H         1.836854        -1.789855         1.241682
