19
Iteration:  4769charge 0 multiplicity 1
 C         0.226639        -0.517879        -0.778799
 C         1.566675        -0.068088        -0.293154
 C         2.509515         0.957954        -1.014438
 C         3.470977         1.040419         0.159645
 C         2.746650         0.938133         1.392002
 O         1.371351         0.684920         1.036689
 C         3.496564        -0.321903         0.965701
 O         4.691867        -0.868115         1.444182
 C         2.561677        -1.209303         0.163561
 H        -0.570821        -0.648711        -0.024711
 H        -0.062990         0.044244        -1.675396
 H         0.462510        -1.515371        -1.288678
 H         2.998552         0.464121        -1.852718
 H         2.039004         1.991066        -1.320332
 H         4.332855         1.744970         0.036961
 H         2.901103         1.621086         2.261535
 H         4.415389        -1.715222         1.848689
 H         3.083408        -1.718144        -0.675306
 H         1.983253        -1.923304         0.793144
