19
Iteration:   197charge 0 multiplicity 1
 C         0.200365        -0.579125        -0.672367
 C         1.573467        -0.082958        -0.252777
 C         2.531749         0.763233        -1.107458
 C         3.617616         0.909171        -0.054180
 C         2.780558         0.947366         1.319734
 O         1.409231         0.883272         0.972486
 C         3.472080        -0.306324         0.872753
 O         4.686847        -0.767781         1.480745
 C         2.399111        -1.194160         0.388097
 H        -0.270945        -0.903899         0.232213
 H        -0.446130         0.192273        -1.207964
 H         0.280073        -1.441652        -1.332259
 H         2.886825         0.269835        -2.043093
 H         2.078305         1.760451        -1.401850
 H         4.601196         1.436854        -0.079898
 H         3.068848         1.373889         2.262838
 H         4.456987        -1.184263         2.325803
 H         2.662080        -2.013055        -0.239007
 H         1.788154        -1.571696         1.225275
