19
Iteration:  4691charge 0 multiplicity 1
 C         0.172922        -0.330334        -0.846457
 C         1.556777        -0.135358        -0.190782
 C         2.581360         0.812028        -0.980678
 C         3.470368         1.014283         0.183596
 C         2.622667         0.893566         1.416921
 O         1.351804         0.622331         0.943194
 C         3.550632        -0.266470         0.891647
 O         4.743524        -0.860956         1.389428
 C         2.583317        -1.243869         0.241548
 H        -0.232597        -1.326915        -0.795277
 H        -0.488521         0.379035        -0.283206
 H         0.263290        -0.043740        -1.896128
 H         3.054934         0.184974        -1.757153
 H         2.084986         1.726894        -1.333750
 H         4.132182         1.815088         0.165180
 H         2.671069         1.660126         2.195910
 H         4.773130        -0.558330         2.345814
 H         3.001194        -1.764271        -0.638746
 H         2.297356        -1.948762         1.008599
