19
Iteration:  2086charge 0 multiplicity 1
 C         0.230267        -0.574242        -0.806946
 C         1.564661        -0.129290        -0.219916
 C         2.531385         0.844521        -0.980984
 C         3.504153         1.159366         0.158610
 C         2.739142         0.950980         1.382574
 O         1.407410         0.701294         1.004860
 C         3.554015        -0.277559         0.846994
 O         4.687671        -0.851645         1.380319
 C         2.489015        -1.192569         0.269430
 H         0.252248        -1.784067        -0.816341
 H        -0.607898        -0.210939        -0.129322
 H         0.149310        -0.092638        -1.783360
 H         2.916304         0.468140        -1.938315
 H         1.885183         1.718724        -1.261807
 H         4.256745         1.867733         0.094710
 H         2.755744         1.630064         2.254973
 H         4.276958        -1.427537         2.014722
 H         2.820618        -1.965108        -0.478388
 H         1.966859        -1.926682         1.006956
