19
Iteration:  3332
 C         0.258507        -0.482485        -0.809546
 C         1.569093        -0.097494        -0.277335
 C         2.507855         0.878784        -1.061005
 C         3.593895         1.037325         0.151966
 C         2.693707         0.833057         1.370334
 O         1.333637         0.647778         1.077783
 C         3.512608        -0.265852         0.828617
 O         4.627331        -0.742842         1.641078
 C         2.570532        -1.185773         0.098698
 H        -0.529635         0.079572        -0.382685
 H         0.009889        -0.411961        -1.973910
 H         0.067064        -1.500340        -0.510588
 H         2.936104         0.322420        -1.855702
 H         2.225330         1.883766        -1.391269
 H         4.547509         1.703525        -0.029861
 H         2.769278         1.296445         2.346172
 H         4.604262        -1.679542         1.568085
 H         2.896135        -1.725492        -0.801474
 H         2.160103        -1.809893         0.845620
