19
Iteration:  1178
 C         0.087376        -0.576381        -0.709107
 C         1.498499        -0.058233        -0.179120
 C         2.452576         0.748064        -1.143375
 C         3.563290         0.950568        -0.020733
 C         2.863608         0.953974         1.282936
 O         1.445803         0.841033         1.036451
 C         3.565054        -0.291610         0.960035
 O         4.649613        -0.842311         1.679757
 C         2.478733        -1.136858         0.180664
 H        -0.630322        -0.679488         0.173397
 H        -0.267895         0.244654        -1.270447
 H         0.281038        -1.491995        -1.415338
 H         2.843813         0.050919        -1.983975
 H         1.844236         1.446461        -1.556820
 H         4.323377         1.587659        -0.225586
 H         3.107979         1.561003         2.190056
 H         5.374596        -0.875528         1.065835
 H         2.848949        -1.655466        -0.746174
 H         2.174315        -1.992704         0.796521
