19
Iteration:  4923charge 0 multiplicity 1
 C         0.233035        -0.581543        -0.820311
 C         1.525982         0.010833        -0.296430
 C         2.514730         0.820150        -0.964284
 C         3.569701         0.986117         0.153001
 C         2.751072         0.974404         1.336130
 O         1.342078         0.802981         0.988469
 C         3.502832        -0.357236         0.906494
 O         4.735954        -0.813755         1.426951
 C         2.490794        -1.184536         0.317205
 H         0.117168        -1.706126        -0.776498
 H        -0.618061        -0.096278        -0.321606
 H         0.153104        -0.521965        -1.930233
 H         2.906200         0.305259        -1.855186
 H         2.043829         1.798144        -1.362575
 H         4.501851         1.394701         0.027329
 H         2.937642         1.387876         2.336058
 H         4.455918        -1.624116         1.974141
 H         2.826620        -1.812968        -0.497276
 H         1.910268        -1.715661         1.103643
