19
Iteration:   188charge 0 multiplicity 1
 C         0.287931        -0.626133        -0.659094
 C         1.532934        -0.003526        -0.250512
 C         2.533665         0.737398        -1.216162
 C         3.538722         0.906672         0.016537
 C         2.758593         1.019800         1.291264
 O         1.378791         0.868128         1.014462
 C         3.535517        -0.299286         0.870405
 O         4.741020        -0.869542         1.514533
 C         2.345662        -1.122844         0.341262
 H        -0.230293        -0.788581         0.229050
 H        -0.382592         0.083865        -1.184279
 H         0.395284        -1.573461        -0.995934
 H         2.845070         0.169043        -2.040489
 H         2.114806         1.809254        -1.374268
 H         4.597922         1.451607        -0.120109
 H         2.920210         1.607187         2.139884
 H         4.524448        -1.366987         2.312891
 H         2.619465        -1.860895        -0.357496
 H         1.823888        -1.602151         1.123007
