19
Iteration:  1239charge 0 multiplicity 1
 C         0.104524        -0.353270        -0.766273
 C         1.501004        -0.096403        -0.220998
 C         2.448373         0.742902        -1.033035
 C         3.496918         0.938114        -0.013299
 C         2.787021         0.994619         1.254690
 O         1.411890         0.676792         0.978747
 C         3.590149        -0.346510         0.972404
 O         4.783629        -0.693929         1.580772
 C         2.480096        -1.305964         0.335341
 H        -0.706699        -0.540472        -0.022798
 H        -0.131694         0.502215        -1.479129
 H         0.087943        -1.200610        -1.364669
 H         2.824653         0.092799        -1.753519
 H         2.022250         1.733581        -1.545891
 H         4.315202         1.605497        -0.211036
 H         3.019507         1.636425         2.135864
 H         5.287447        -1.366287         1.082827
 H         2.758829        -2.027778        -0.433472
 H         2.037825        -1.797032         1.229349
