19
Iteration:  4555
 C         0.221909        -0.483940        -0.900946
 C         1.534066        -0.066225        -0.205127
 C         2.534525         0.879657        -1.017885
 C         3.544999         0.955213         0.061495
 C         2.788330         0.872511         1.412162
 O         1.344992         0.747487         0.993300
 C         3.554710        -0.375485         0.884311
 O         4.703384        -0.738380         1.512081
 C         2.477179        -1.242412         0.291210
 H         0.200343        -0.191410        -1.980228
 H        -0.132657        -1.497749        -0.853555
 H        -0.659758         0.065948        -0.460833
 H         2.946519         0.198081        -1.902453
 H         1.888415         1.680394        -1.375103
 H         4.431871         1.488284        -0.116127
 H         2.707993         1.171234         2.476586
 H         4.641639        -0.693538         2.444575
 H         2.925667        -1.623375        -0.593702
 H         1.950058        -1.968945         0.900738
