19
Iteration:  2547
 C         0.163213        -0.325005        -0.945299
 C         1.503675        -0.078567        -0.183766
 C         2.560102         0.807361        -1.032499
 C         3.570979         1.013308         0.093550
 C         2.659128         0.751597         1.384350
 O         1.294590         0.526662         0.998636
 C         3.584997        -0.260450         0.785139
 O         4.760734        -0.720201         1.567604
 C         2.582188        -1.199737         0.286980
 H        -0.233536         0.605477        -1.323554
 H         0.180761        -1.056849        -1.818058
 H        -0.616283        -0.858901        -0.252403
 H         2.794224         0.287446        -1.924653
 H         2.006755         1.800179        -1.226118
 H         4.387318         1.846731         0.292206
 H         2.656925         1.215464         2.371683
 H         5.053605        -0.201035         2.387456
 H         2.774606        -1.992787        -0.471482
 H         2.160013        -1.816210         1.168478
