19
Iteration:  3474
 C         0.277450        -0.447368        -0.830979
 C         1.527319        -0.113706        -0.191353
 C         2.448013         0.874886        -1.025315
 C         3.540137         1.021109         0.120136
 C         2.779113         0.805617         1.404415
 O         1.397412         0.682515         0.989092
 C         3.549686        -0.300110         0.819801
 O         4.623906        -0.719129         1.607395
 C         2.559851        -1.223269         0.121551
 H        -0.239593         0.387428        -1.286768
 H         0.388746        -1.169769        -1.752480
 H        -0.426999        -0.869856        -0.168702
 H         2.744124         0.357225        -1.911084
 H         2.017903         1.872094        -1.180167
 H         4.193250         1.765827         0.167736
 H         2.986401         1.232182         2.410575
 H         4.326481        -1.457985         2.110544
 H         2.941872        -1.708792        -0.844511
 H         2.089362        -1.981230         0.823182
