19
Iteration:  4544charge 0 multiplicity 1
 C         0.244838        -0.502358        -1.014226
 C         1.544023        -0.101363        -0.269481
 C         2.413692         0.843597        -0.963064
 C         3.512662         0.961181         0.092908
 C         2.821992         0.918258         1.371746
 O         1.374463         0.769974         1.075437
 C         3.498888        -0.347105         0.920095
 O         4.744234        -0.796370         1.500310
 C         2.446184        -1.226011         0.296983
 H         0.321764        -0.220350        -2.088473
 H         0.257004        -1.568326        -0.929560
 H        -0.625524         0.013892        -0.527583
 H         2.961971         0.476991        -1.957597
 H         1.966976         1.839636        -1.163339
 H         4.451222         1.369829        -0.071005
 H         3.170626         1.522647         2.255175
 H         4.633777        -0.529812         2.423366
 H         2.756207        -1.914907        -0.468739
 H         1.956559        -1.879116         1.026233
