19
Iteration:    70charge 0 multiplicity 1
 C         0.228372        -0.401375        -0.675261
 C         1.544907        -0.155767        -0.148440
 C         2.520353         0.682265        -1.151077
 C         3.526842         0.932347        -0.082208
 C         2.741899         0.976648         1.274193
 O         1.375239         0.766301         0.977703
 C         3.552353        -0.252456         0.846876
 O         4.707052        -0.789034         1.506661
 C         2.465197        -1.198896         0.431401
 H        -0.301083        -1.232992        -0.175175
 H        -0.359232         0.571864        -0.536243
 H         0.283673        -0.764501        -1.726556
 H         2.893095         0.066466        -1.929354
 H         1.980059         1.625399        -1.535068
 H         4.510929         1.539151        -0.224417
 H         2.947459         1.751257         2.027942
 H         4.377964        -1.174165         2.313577
 H         2.834464        -1.978860        -0.294749
 H         2.097594        -1.787041         1.307869
