19
Iteration:  1242charge 0 multiplicity 1
 C         0.117203        -0.344159        -0.767827
 C         1.506773        -0.102913        -0.195745
 C         2.453899         0.727619        -1.056414
 C         3.504352         0.939130        -0.014322
 C         2.789992         1.005405         1.263562
 O         1.394050         0.684626         0.996780
 C         3.553591        -0.348810         0.974550
 O         4.783380        -0.706556         1.573051
 C         2.499900        -1.279527         0.326007
 H        -0.728967        -0.626132        -0.081157
 H        -0.161092         0.442292        -1.395453
 H         0.129907        -1.257328        -1.366580
 H         2.824111         0.020629        -1.798998
 H         2.111265         1.684302        -1.567597
 H         4.319748         1.570568        -0.116112
 H         3.059723         1.701567         2.077626
 H         5.314277        -1.286453         1.046587
 H         2.664936        -1.956893        -0.487500
 H         2.058454        -1.855268         1.151338
