19
Iteration:  4251
 C         0.282643        -0.563633        -0.875167
 C         1.569286        -0.087811        -0.185118
 C         2.566507         0.927451        -0.901119
 C         3.551736         1.143939         0.261868
 C         2.571406         0.895732         1.449807
 O         1.252294         0.660616         1.007910
 C         3.574911        -0.304811         0.865922
 O         4.766855        -0.808755         1.297754
 C         2.503636        -1.185617         0.188741
 H        -0.534526        -0.554656        -0.233932
 H         0.172649         0.069729        -1.697027
 H         0.391287        -1.603811        -1.297653
 H         3.014016         0.281857        -1.748461
 H         2.101949         1.849027        -1.272419
 H         4.542689         1.806760         0.312205
 H         2.693994         0.946327         2.534837
 H         4.423512        -1.571447         1.859603
 H         2.897712        -1.448465        -0.792405
 H         2.084842        -2.057551         0.712219
