19
Iteration:  3818
 C         0.311415        -0.462596        -0.988462
 C         1.623806        -0.142014        -0.251810
 C         2.482664         0.913067        -0.933821
 C         3.492356         1.036559         0.198751
 C         2.621395         0.869767         1.487522
 O         1.312363         0.599462         1.081277
 C         3.527678        -0.263193         0.896201
 O         4.791567        -0.873319         1.312931
 C         2.506220        -1.154607         0.289170
 H        -0.198698         0.428867        -1.350775
 H         0.381851        -0.955635        -1.961899
 H        -0.441713        -1.114007        -0.377546
 H         2.874326         0.602856        -1.962999
 H         2.004458         1.952640        -1.139266
 H         4.301719         1.863700         0.108430
 H         2.681447         1.511644         2.310961
 H         4.783873        -0.720557         2.240727
 H         2.874193        -1.738135        -0.569720
 H         1.831446        -1.781200         0.953148
