19
Iteration:  2201
 C         0.214469        -0.560772        -0.794179
 C         1.568602        -0.079977        -0.228903
 C         2.446600         0.881548        -1.038767
 C         3.537487         0.991036         0.066287
 C         2.751865         0.912705         1.422463
 O         1.401204         0.690343         1.009340
 C         3.504073        -0.291682         0.913622
 O         4.638250        -0.862257         1.518777
 C         2.565189        -1.162482         0.194359
 H         0.259027        -0.694565        -1.829392
 H        -0.153839        -1.547802        -0.393486
 H        -0.592236         0.192947        -0.571696
 H         2.730899         0.475272        -2.053405
 H         2.054569         1.809441        -1.322247
 H         4.487105         1.538911        -0.081365
 H         2.771755         1.639655         2.255088
 H         4.987109        -0.212431         2.125846
 H         3.165833        -1.474135        -0.659519
 H         2.135038        -2.024967         0.594045
