19
Iteration:   772charge 0 multiplicity 1
 C         0.199452        -0.433216        -0.655873
 C         1.525197        -0.003263        -0.174537
 C         2.529581         0.738605        -1.071687
 C         3.608290         0.888152        -0.077406
 C         2.821227         0.946006         1.260888
 O         1.370436         0.766130         1.014918
 C         3.497778        -0.336780         0.840842
 O         4.695853        -0.678541         1.510673
 C         2.423661        -1.309688         0.299139
 H        -0.480456        -0.672663         0.143612
 H        -0.367966         0.312548        -1.358724
 H         0.280102        -1.291514        -1.251800
 H         2.835437        -0.025034        -1.873611
 H         2.150756         1.635101        -1.528671
 H         4.498144         1.622756        -0.067851
 H         2.986758         1.411522         2.223004
 H         4.426048        -1.114087         2.316617
 H         2.834522        -2.029555        -0.353061
 H         2.054530        -1.876044         1.207113
