19
Iteration:  4998
 C         0.154501        -0.343237        -0.706790
 C         1.531732        -0.139322        -0.222302
 C         2.538799         0.759493        -1.062261
 C         3.580960         0.944137         0.089813
 C         2.705773         0.844204         1.320235
 O         1.341132         0.690378         0.905785
 C         3.591786        -0.334803         0.809487
 O         4.695618        -0.715493         1.594999
 C         2.544512        -1.183386         0.203252
 H        -0.330314        -1.119823        -0.017215
 H        -0.329776         0.630791        -0.560153
 H        -0.117652        -0.725134        -1.709065
 H         3.034227         0.016393        -1.832733
 H         2.142195         1.725694        -1.353927
 H         4.377149         1.588844         0.091417
 H         3.047589         1.282883         2.317459
 H         4.351760        -0.733658         2.473133
 H         2.932489        -1.742191        -0.648002
 H         2.068184        -1.844226         0.969507
