19
Iteration:  1723
 C         0.208289        -0.457682        -0.741757
 C         1.587396        -0.080816        -0.210734
 C         2.470034         0.745657        -1.018617
 C         3.531115         1.053683        -0.014955
 C         2.777482         0.886785         1.318117
 O         1.409362         0.707077         1.030566
 C         3.547184        -0.299782         0.814271
 O         4.683767        -0.765088         1.489990
 C         2.449234        -1.202232         0.325924
 H        -0.424475        -0.855021         0.026405
 H        -0.336223         0.377841        -1.252170
 H         0.510245        -1.249750        -1.540781
 H         2.911322         0.338497        -1.923804
 H         1.794361         1.718883        -1.319739
 H         4.469771         1.697797        -0.214393
 H         3.060017         1.422857         2.229497
 H         4.469713        -1.478615         2.191020
 H         2.857305        -1.930936        -0.446606
 H         1.890338        -1.613853         1.180790
