19
Iteration:  1747charge 0 multiplicity 1
 C         0.052054        -0.452400        -0.713539
 C         1.493381        -0.065903        -0.137299
 C         2.606529         0.817979        -1.109961
 C         3.552751         0.935628        -0.030480
 C         2.773845         0.883262         1.321194
 O         1.356525         0.680356         1.052749
 C         3.544824        -0.362253         0.841751
 O         4.752681        -0.717898         1.580766
 C         2.501861        -1.216857         0.181375
 H        -0.487182        -1.184855        -0.042766
 H        -0.532676         0.542146        -0.672626
 H         0.129010        -0.810792        -1.713975
 H         2.877906        -0.020365        -1.877166
 H         2.300210         1.714777        -1.716692
 H         4.447806         1.464326        -0.025682
 H         3.061120         1.487089         2.176202
 H         4.744632        -0.252797         2.402472
 H         2.973507        -1.614870        -0.752373
 H         1.974908        -1.956879         0.780277
