19
Iteration:  4913charge 0 multiplicity 1
 C         0.188067        -0.604132        -0.767455
 C         1.540267        -0.109076        -0.203297
 C         2.623244         0.871012        -1.027794
 C         3.619329         0.968022         0.115816
 C         2.662188         0.968445         1.368128
 O         1.365009         0.761025         0.961548
 C         3.512422        -0.270603         0.956417
 O         4.662029        -0.852245         1.421388
 C         2.483040        -1.114022         0.214257
 H         0.112226        -1.682107        -0.437347
 H        -0.669158        -0.097062        -0.270505
 H         0.067898        -0.339521        -1.826131
 H         2.991860         0.483016        -1.932634
 H         2.187639         1.939402        -1.268581
 H         4.543884         1.395065        -0.039462
 H         2.836772         1.670857         2.212486
 H         4.660938        -1.602129         2.072627
 H         2.830583        -1.782708        -0.559855
 H         1.999817        -1.792988         0.973674
