19
Iteration:  4970
 C         0.189740        -0.230570        -0.950743
 C         1.522279        -0.165774        -0.211483
 C         2.490573         0.754013        -1.019688
 C         3.555225         0.924006        -0.004985
 C         2.748217         0.994533         1.380597
 O         1.360879         0.607815         1.048873
 C         3.541181        -0.291054         0.958454
 O         4.756910        -0.690848         1.481554
 C         2.465150        -1.373701         0.321448
 H        -0.193168        -1.241918        -0.723768
 H        -0.547624         0.346779        -0.325615
 H         0.052977        -0.273937        -2.010545
 H         2.815879         0.179379        -1.815894
 H         2.136161         1.758120        -1.521643
 H         4.490000         1.612328        -0.266159
 H         3.056115         1.550343         2.254790
 H         4.669439        -0.798164         2.446669
 H         3.087051        -1.957628        -0.389739
 H         1.939629        -1.943389         1.109341
