19
Iteration:  4169
 C         0.168143        -0.335638        -0.779860
 C         1.556740        -0.118165        -0.262229
 C         2.512028         0.923455        -1.013278
 C         3.426373         1.112014         0.184403
 C         2.689386         0.722071         1.505035
 O         1.347451         0.473357         1.031657
 C         3.524280        -0.262279         0.829765
 O         4.766190        -0.726498         1.563780
 C         2.653217        -1.208460        -0.043037
 H        -0.329429         0.708365        -0.899794
 H         0.331892        -0.686749        -1.899254
 H        -0.371690        -1.124707        -0.196533
 H         2.841301         0.560205        -1.965191
 H         1.874842         1.827448        -1.236958
 H         4.448111         1.667232         0.026786
 H         2.858107         1.169511         2.517083
 H         4.422597        -1.091529         2.456218
 H         3.073510        -1.642993        -1.009675
 H         2.210940        -2.094571         0.562017
