19
Iteration:  2397charge 0 multiplicity 1
 C         0.234644        -0.410823        -0.879380
 C         1.616026        -0.133565        -0.211719
 C         2.563253         0.857750        -1.058666
 C         3.520313         0.994222         0.101377
 C         2.702184         0.818305         1.385767
 O         1.341532         0.635398         1.024522
 C         3.506668        -0.280466         0.878962
 O         4.678377        -0.703353         1.478742
 C         2.505952        -1.298731         0.285863
 H        -0.514723         0.236114        -0.490843
 H         0.207682        -0.155839        -1.987300
 H        -0.309712        -1.399288        -0.755945
 H         3.037067         0.231318        -1.908240
 H         1.997014         1.682838        -1.382910
 H         4.454410         1.616305         0.041825
 H         2.815233         1.217470         2.372111
 H         4.839649        -0.090625         2.221713
 H         2.855984        -1.986015        -0.442703
 H         2.048952        -1.587993         1.180037
