19
Iteration:  3358charge 0 multiplicity 1
 C         0.225293        -0.380587        -0.886876
 C         1.586749        -0.165865        -0.262712
 C         2.494725         0.872033        -1.007671
 C         3.496397         1.072050         0.138519
 C         2.736852         0.786768         1.312232
 O         1.370469         0.616517         1.033211
 C         3.527307        -0.321559         0.849884
 O         4.646249        -0.692611         1.671650
 C         2.567169        -1.256003         0.186332
 H        -0.406074         0.571930        -0.664413
 H         0.211845        -0.525311        -1.911049
 H        -0.378989        -1.227980        -0.499457
 H         3.003133         0.523272        -1.930509
 H         1.980888         1.881695        -1.171252
 H         4.254942         1.724966         0.094002
 H         2.970595         1.294058         2.246134
 H         5.008878        -1.420381         1.203639
 H         2.915558        -1.829101        -0.648471
 H         2.094746        -1.816357         0.984585
