19
Iteration:  1838
 C         0.329298        -0.541467        -0.788166
 C         1.564010        -0.002541        -0.126638
 C         2.443111         0.819031        -1.034041
 C         3.484893         0.941562         0.037281
 C         2.712060         0.950536         1.364897
 O         1.336291         0.827225         1.017606
 C         3.534628        -0.306686         0.905872
 O         4.745671        -0.763783         1.391321
 C         2.464013        -1.298791         0.313937
 H        -0.310927        -1.161940        -0.103299
 H        -0.340050         0.284082        -1.039774
 H         0.642932        -1.069217        -1.701608
 H         2.799490         0.324471        -2.047496
 H         1.911377         1.705095        -1.206469
 H         4.502732         1.534677         0.154232
 H         2.999645         1.436743         2.304252
 H         4.761678        -1.760936         1.529748
 H         2.915600        -1.744659        -0.544737
 H         1.958564        -2.047911         0.963429
