19
Iteration:  2003
 C         0.224701        -0.362018        -0.798328
 C         1.494299        -0.099038        -0.228232
 C         2.478265         0.886454        -1.055057
 C         3.493750         0.947696         0.023264
 C         2.724279         0.901907         1.365596
 O         1.340246         0.564081         1.055473
 C         3.583366        -0.289954         0.897453
 O         4.748287        -0.823446         1.493846
 C         2.538526        -1.232378         0.253019
 H        -0.087234        -1.320429        -0.577765
 H        -0.496365         0.295188        -0.476025
 H         0.303038        -0.348442        -1.877965
 H         2.843741         0.428637        -2.030855
 H         1.931651         1.778632        -1.192959
 H         4.247920         1.661757        -0.032886
 H         2.813812         1.526205         2.283758
 H         5.102507        -0.079148         1.995526
 H         2.920687        -1.849126        -0.521976
 H         2.095330        -1.745076         1.077984
