19
Iteration:  1175charge 0 multiplicity 1
 C         0.098580        -0.602618        -0.710997
 C         1.496360        -0.057313        -0.173458
 C         2.450186         0.739988        -1.154488
 C         3.566214         0.915292        -0.007654
 C         2.846836         0.955061         1.281478
 O         1.438672         0.869587         1.028842
 C         3.560573        -0.284689         0.932841
 O         4.642933        -0.872189         1.674034
 C         2.517951        -1.119663         0.196494
 H        -0.662778        -0.807760         0.132554
 H        -0.245932         0.355961        -1.164310
 H         0.125414        -1.424447        -1.358807
 H         2.888328         0.136923        -1.869456
 H         1.794344         1.590891        -1.647226
 H         4.313586         1.722339        -0.196709
 H         3.061081         1.544744         2.190455
 H         5.407472        -0.816473         0.999622
 H         2.954253        -1.636247        -0.607762
 H         2.155104        -1.931452         0.845159
