19
Iteration:   784charge 0 multiplicity 1
 C         0.140647        -0.350514        -0.756770
 C         1.490763        -0.103966        -0.105354
 C         2.487625         0.638751        -1.062355
 C         3.618326         0.907811        -0.034542
 C         2.720613         0.845041         1.308511
 O         1.361003         0.824394         1.027591
 C         3.600145        -0.338661         0.810706
 O         4.740202        -0.672632         1.507368
 C         2.505746        -1.271524         0.321344
 H        -0.643208        -0.405916         0.039473
 H        -0.095221         0.530832        -1.494751
 H         0.236582        -1.271606        -1.251433
 H         2.775643        -0.076942        -1.938880
 H         2.039343         1.488652        -1.462003
 H         4.505965         1.496412        -0.293528
 H         3.109089         1.542497         2.032274
 H         4.583406        -0.713982         2.476183
 H         2.634442        -1.779389        -0.613594
 H         2.010011        -1.915284         1.097145
