19
Iteration:  3308
 C         0.214911        -0.539400        -0.818790
 C         1.533010        -0.085304        -0.251492
 C         2.498132         0.973010        -1.062805
 C         3.564498         1.010772         0.145327
 C         2.729799         0.920871         1.396334
 O         1.360938         0.668268         0.943950
 C         3.504155        -0.293846         0.987040
 O         4.707651        -0.851565         1.553846
 C         2.538886        -1.167323         0.202882
 H        -0.687985        -0.126481        -0.474825
 H         0.196456        -0.480207        -1.982964
 H         0.206277        -1.643759        -0.636232
 H         2.880220         0.518076        -2.011765
 H         2.152011         1.949618        -1.199184
 H         4.348861         1.826844         0.032521
 H         2.584321         1.627339         2.204697
 H         4.547975        -1.806556         1.829299
 H         3.085993        -1.451565        -0.723718
 H         2.126943        -2.060374         0.749303
