19
Iteration:  1971
 C         0.207190        -0.531067        -0.836347
 C         1.526854        -0.114814        -0.191674
 C         2.531127         0.811737        -0.992969
 C         3.485568         1.032019         0.178452
 C         2.717724         0.920905         1.426352
 O         1.325583         0.777175         1.057140
 C         3.564635        -0.257604         0.873576
 O         4.718559        -0.812870         1.301168
 C         2.545291        -1.209844         0.252837
 H        -0.377656        -1.077991        -0.220174
 H        -0.390350         0.257898        -1.209126
 H         0.545660        -1.106587        -1.737714
 H         2.975245         0.261084        -1.803388
 H         1.999107         1.716002        -1.265406
 H         4.296709         1.641627         0.006655
 H         2.871632         1.421530         2.400634
 H         4.690837        -1.360895         2.127941
 H         2.993629        -1.756867        -0.565309
 H         2.283948        -1.990499         0.935728
