19
Iteration:   483
 C         0.104597        -0.552397        -0.693963
 C         1.491662        -0.063342        -0.210453
 C         2.508024         0.626703        -1.087860
 C         3.656848         0.890841         0.012911
 C         2.857982         0.954338         1.299261
 O         1.483897         0.894932         0.951527
 C         3.544557        -0.301424         0.830937
 O         4.677270        -0.678018         1.542238
 C         2.335728        -1.220881         0.335517
 H        -0.113604        -1.581633        -0.320413
 H        -0.733799         0.127272        -0.468874
 H         0.143803        -0.573847        -1.782366
 H         2.868709         0.065411        -1.860025
 H         2.158920         1.605784        -1.538063
 H         4.616159         1.387602        -0.341346
 H         2.997680         1.502637         2.199210
 H         4.551573        -1.053608         2.453257
 H         2.664858        -2.043619        -0.354930
 H         1.818132        -1.657146         1.201002
