19
Iteration:  2285
 C         0.165407        -0.361789        -0.813117
 C         1.482829        -0.169243        -0.188580
 C         2.518045         0.785438        -0.944438
 C         3.518880         0.997196         0.133489
 C         2.650129         0.911002         1.327556
 O         1.331851         0.669359         0.931089
 C         3.554354        -0.370764         0.857608
 O         4.782391        -0.733885         1.529477
 C         2.596673        -1.264441         0.187740
 H         0.114265         0.394563        -1.607737
 H         0.201315        -1.383174        -1.219242
 H        -0.708297        -0.239879        -0.057664
 H         3.034299         0.229296        -1.813043
 H         1.910351         1.749344        -1.186906
 H         4.364054         1.726135         0.122154
 H         2.885869         1.470478         2.248069
 H         4.949627        -0.251623         2.361320
 H         3.013802        -1.646625        -0.774851
 H         2.107897        -2.108738         0.761621
