19
Iteration:  1584
 C         0.261580        -0.512955        -0.642064
 C         1.466341        -0.081731        -0.105931
 C         2.537984         0.683814        -1.070437
 C         3.623094         0.971399        -0.027584
 C         2.809421         0.934355         1.297022
 O         1.433977         0.777875         1.008747
 C         3.479485        -0.287995         0.732581
 O         4.631855        -0.707988         1.485662
 C         2.410621        -1.199167         0.324852
 H        -0.017545        -1.539173        -0.405333
 H        -0.656824         0.141151        -0.419932
 H         0.328521        -0.405427        -1.717932
 H         3.024940         0.120678        -1.969098
 H         2.154276         1.576736        -1.366745
 H         4.624841         1.558994        -0.285498
 H         3.109680         1.471986         2.189192
 H         4.191603        -1.359103         2.085255
 H         2.576029        -1.941909        -0.474493
 H         2.088140        -1.583272         1.278603
