19
Iteration:   539charge 0 multiplicity 1
 C         0.097311        -0.273442        -0.812816
 C         1.500993        -0.189575        -0.150654
 C         2.515344         0.534005        -1.153183
 C         3.511614         0.984912        -0.055104
 C         2.814626         0.918038         1.234950
 O         1.410117         0.787351         1.040504
 C         3.584080        -0.309355         0.889598
 O         4.696747        -0.678880         1.531862
 C         2.489583        -1.302152         0.448403
 H        -0.657194        -0.791508        -0.168243
 H        -0.150624         0.731723        -0.833507
 H         0.138519        -0.792163        -1.837707
 H         3.055214         0.012171        -1.834440
 H         1.991004         1.396662        -1.676851
 H         4.466651         1.646681        -0.272398
 H         3.128941         1.530387         2.118985
 H         4.614617        -0.785941         2.518830
 H         2.906422        -1.948814        -0.375382
 H         2.172214        -1.839701         1.315238
