19
Iteration:  3993charge 0 multiplicity 1
 C         0.271169        -0.478466        -0.925677
 C         1.596724        -0.102397        -0.247955
 C         2.445564         0.970184        -0.902788
 C         3.520650         1.106034         0.142124
 C         2.673498         0.804074         1.428273
 O         1.340017         0.664989         1.030776
 C         3.574928        -0.274066         0.835738
 O         4.702759        -0.849928         1.453477
 C         2.576731        -1.207645         0.184731
 H        -0.670597        -0.182658        -0.469426
 H         0.273122        -0.273884        -2.008644
 H         0.064340        -1.609721        -0.840144
 H         2.742519         0.515905        -1.792333
 H         1.760368         1.899678        -0.912732
 H         4.262513         1.781880        -0.023240
 H         2.864639         1.269054         2.444215
 H         4.463826        -1.498273         2.187661
 H         3.047276        -1.750511        -0.668753
 H         2.138722        -1.759814         1.087033
