19
Iteration:  2374charge 0 multiplicity 1
 C         0.237022        -0.514804        -0.849456
 C         1.589519        -0.041113        -0.224991
 C         2.558157         0.825895        -1.023025
 C         3.549917         0.985913         0.124141
 C         2.677813         0.968985         1.357562
 O         1.320432         0.657333         1.003926
 C         3.556686        -0.244649         0.931155
 O         4.750546        -0.790369         1.456701
 C         2.440543        -1.225312         0.248368
 H        -0.640440        -0.063751        -0.493590
 H         0.181640        -0.454161        -1.953888
 H         0.101573        -1.614465        -0.590063
 H         3.046544         0.236807        -1.850692
 H         1.937843         1.640185        -1.302704
 H         4.369584         1.637874         0.116114
 H         2.689750         1.663162         2.181462
 H         4.518064        -1.210001         2.293153
 H         2.971094        -1.657860        -0.556251
 H         1.914528        -1.861640         0.947580
