19
Iteration:  1087
 C         0.215093        -0.323999        -0.780245
 C         1.554067        -0.181458        -0.127481
 C         2.469561         0.605487        -1.085337
 C         3.519850         0.888589        -0.074410
 C         2.767019         1.000959         1.266965
 O         1.407209         0.792202         1.072704
 C         3.511787        -0.319267         0.905435
 O         4.659215        -0.702182         1.582329
 C         2.474021        -1.320928         0.318574
 H        -0.435381        -1.128668        -0.313431
 H        -0.388751         0.646118        -0.574924
 H         0.342077        -0.411399        -1.819601
 H         2.902839         0.139039        -1.891345
 H         1.864431         1.513689        -1.429581
 H         4.454659         1.564732        -0.327941
 H         3.075200         1.741080         1.971883
 H         5.464368        -0.596566         0.970143
 H         2.990214        -1.948308        -0.360195
 H         2.063665        -1.911876         1.151482
