19
Iteration:  3743
 C         0.208540        -0.450898        -0.769140
 C         1.576138        -0.103672        -0.302994
 C         2.511336         0.964791        -0.999521
 C         3.524594         1.014024         0.166891
 C         2.697817         0.834824         1.394221
 O         1.296663         0.669607         0.957522
 C         3.562448        -0.308150         0.832772
 O         4.709020        -0.779344         1.588576
 C         2.619251        -1.279527         0.087431
 H        -0.397208         0.332778        -0.348757
 H        -0.154182        -0.593262        -1.781623
 H        -0.296857        -1.389405        -0.381873
 H         2.977340         0.725637        -2.001185
 H         2.023637         1.862951        -1.106655
 H         4.353734         1.757108         0.085562
 H         2.903457         1.286005         2.355656
 H         4.185207        -1.170400         2.369741
 H         3.108226        -1.819846        -0.712857
 H         2.345280        -2.049968         0.792587
