19
Iteration:   911charge 0 multiplicity 1
 C         0.071494        -0.474079        -0.704658
 C         1.518656        -0.151270        -0.162584
 C         2.507211         0.705080        -1.149200
 C         3.522152         1.064336        -0.080507
 C         2.906300         0.969028         1.237771
 O         1.441356         0.781776         0.954656
 C         3.585299        -0.328425         0.840826
 O         4.698053        -0.743714         1.605910
 C         2.447805        -1.274514         0.391521
 H        -0.380914        -1.341214        -0.305409
 H        -0.425865         0.492666        -0.369285
 H         0.102305        -0.494696        -1.852654
 H         2.921737         0.250757        -1.963567
 H         1.999330         1.736885        -1.414901
 H         4.348464         1.733989        -0.099676
 H         2.958539         1.456762         2.210774
 H         4.308217        -1.514352         2.132956
 H         2.820178        -2.149547        -0.171957
 H         1.956587        -1.654424         1.309505
