19
Iteration:  1321
 C         0.167937        -0.490295        -0.656264
 C         1.536062        -0.068018        -0.200024
 C         2.418621         0.763611        -1.076078
 C         3.590631         0.898650        -0.051850
 C         2.821833         0.991989         1.250151
 O         1.417441         0.760285         0.978392
 C         3.556551        -0.282244         0.882286
 O         4.587761        -0.854563         1.544001
 C         2.536646        -1.178628         0.326464
 H        -0.126875        -1.431014        -0.274481
 H        -0.581451         0.211772        -0.356757
 H         0.140067        -0.479729        -1.825451
 H         2.614591         0.220253        -2.111828
 H         1.925886         1.661252        -1.318335
 H         4.661384         1.331013        -0.178063
 H         2.953579         1.758840         2.004555
 H         5.044925        -0.465156         2.248268
 H         3.029774        -1.857206        -0.455687
 H         2.250475        -1.820956         1.139816
