19
Iteration:  3221charge 0 multiplicity 1
 C         0.240300        -0.321183        -0.848945
 C         1.597068        -0.156901        -0.227884
 C         2.447407         0.895233        -0.991025
 C         3.536292         1.060699         0.165934
 C         2.662192         0.852566         1.368826
 O         1.325856         0.602970         0.956749
 C         3.573091        -0.385725         0.868874
 O         4.710528        -0.689426         1.528921
 C         2.582718        -1.312159         0.168824
 H         0.063808         0.542039        -1.425101
 H         0.264699        -1.306708        -1.434646
 H        -0.582027        -0.500124        -0.078328
 H         2.907523         0.525615        -1.951479
 H         1.941106         1.833802        -1.154618
 H         4.429340         1.629497         0.158710
 H         2.786338         1.276788         2.343426
 H         4.269808        -1.100587         2.361057
 H         3.031204        -1.889047        -0.619514
 H         2.177040        -1.976141         0.898927
