19
Iteration:  2990
 C         0.210090        -0.404856        -0.948983
 C         1.556843        -0.098914        -0.271499
 C         2.552620         0.842356        -1.021138
 C         3.499365         1.053660         0.106865
 C         2.717815         0.820792         1.404043
 O         1.372798         0.561154         1.043735
 C         3.535182        -0.276862         0.851390
 O         4.773890        -0.731241         1.519950
 C         2.447603        -1.219412         0.284742
 H        -0.106097         0.340267        -1.757609
 H         0.130674        -1.445242        -1.184722
 H        -0.610549        -0.367457        -0.100202
 H         3.110099         0.531198        -2.025573
 H         2.113235         1.799246        -1.305122
 H         4.386274         1.776799         0.278863
 H         2.795433         1.443707         2.258201
 H         4.467253        -1.096872         2.416611
 H         2.714776        -1.803368        -0.561804
 H         1.961407        -1.819410         1.023312
