19
Iteration:  3295
 C         0.259176        -0.568309        -0.877170
 C         1.588020        -0.065868        -0.251288
 C         2.470838         0.900241        -0.959925
 C         3.572529         1.060153         0.147903
 C         2.624833         0.913241         1.411481
 O         1.346586         0.733862         0.952659
 C         3.552158        -0.255564         0.909233
 O         4.679903        -0.854546         1.481908
 C         2.586649        -1.200643         0.199976
 H        -0.498070         0.077586        -0.388126
 H         0.250407        -0.384350        -1.922065
 H        -0.016497        -1.641576        -0.637186
 H         2.919397         0.550361        -1.944992
 H         1.890232         1.740650        -1.144517
 H         4.522838         1.426466         0.165829
 H         2.874240         1.301664         2.375330
 H         4.297742        -1.527128         2.018029
 H         2.973927        -1.918065        -0.554082
 H         2.051366        -1.843185         1.040450
