19
Iteration:   298
 C         0.184286        -0.583666        -0.635629
 C         1.521697         0.015086        -0.190450
 C         2.466244         0.756875        -1.195808
 C         3.608834         0.791324        -0.047230
 C         2.767262         0.986859         1.290025
 O         1.456537         0.873906         0.887738
 C         3.535440        -0.357252         0.961665
 O         4.709271        -0.785777         1.531044
 C         2.393710        -1.134812         0.395946
 H        -0.015520        -1.535796        -0.102162
 H        -0.754386         0.011971        -0.632996
 H         0.394572        -0.888678        -1.665577
 H         2.692761         0.393743        -2.150486
 H         2.101172         1.866474        -1.422442
 H         4.555901         1.323565        -0.079272
 H         3.026540         1.692546         2.156814
 H         4.532091        -1.306967         2.380181
 H         2.774016        -1.806815        -0.355015
 H         1.852878        -1.602052         1.150368
