19
Iteration:  2808charge 0 multiplicity 1
 C         0.147866        -0.324256        -0.910320
 C         1.493813        -0.097203        -0.196417
 C         2.540361         0.810048        -1.077132
 C         3.550215         0.911294         0.108139
 C         2.689273         0.900281         1.322275
 O         1.280545         0.596964         1.026595
 C         3.598772        -0.335358         0.904477
 O         4.788206        -0.683463         1.625117
 C         2.550790        -1.240578         0.189908
 H        -0.619646         0.342296        -0.758423
 H         0.244092        -0.489358        -1.987530
 H        -0.335855        -1.261233        -0.437918
 H         2.957025         0.259267        -1.857144
 H         2.323194         1.903987        -1.479047
 H         4.365874         1.605578        -0.017949
 H         2.918599         1.607671         2.155273
 H         4.539077        -0.905995         2.513637
 H         3.022571        -1.909856        -0.576235
 H         2.170172        -2.017626         0.858475
