19
Iteration:  3496charge 0 multiplicity 1
 C         0.191076        -0.360809        -0.851938
 C         1.529373        -0.091398        -0.254862
 C         2.546524         0.853259        -1.016343
 C         3.562038         1.028152         0.093794
 C         2.707728         0.806524         1.342636
 O         1.303241         0.597907         1.050347
 C         3.540036        -0.346295         0.838887
 O         4.732021        -0.629723         1.623305
 C         2.551483        -1.267424         0.182852
 H        -0.497145         0.495564        -0.838380
 H         0.256233        -0.631855        -1.993955
 H        -0.295038        -1.115730        -0.279994
 H         3.047156         0.342898        -1.821441
 H         2.075265         1.807509        -1.333788
 H         4.461600         1.457205        -0.044789
 H         3.008172         1.216862         2.355365
 H         4.587411        -1.533162         2.072597
 H         2.907934        -1.803510        -0.768111
 H         1.883889        -1.942628         0.787725
