19
Iteration:  3517
 C         0.147977        -0.368786        -0.889234
 C         1.579013        -0.095399        -0.287512
 C         2.562970         0.814365        -1.026448
 C         3.567848         0.942245         0.110825
 C         2.611972         0.869796         1.450055
 O         1.376588         0.560228         0.982560
 C         3.533582        -0.289214         0.996835
 O         4.759104        -0.697754         1.451805
 C         2.507344        -1.209559         0.245855
 H        -0.461981         0.456390        -0.561666
 H         0.242838        -0.199638        -2.021278
 H        -0.222628        -1.258215        -0.511175
 H         3.001879         0.376607        -1.961380
 H         2.010017         1.760242        -1.195387
 H         4.307886         1.614358         0.175204
 H         2.714200         1.690535         2.220333
 H         4.620792        -1.205431         2.220275
 H         3.045433        -1.829672        -0.577749
 H         1.983626        -1.927835         0.984406
