19
Iteration:   440
 C         0.114515        -0.564011        -0.709392
 C         1.569321        -0.116083        -0.267200
 C         2.492831         0.690546        -1.135533
 C         3.592930         0.897269        -0.084378
 C         2.803448         1.140706         1.245539
 O         1.442205         0.802047         1.015280
 C         3.527024        -0.173559         0.993557
 O         4.645706        -0.967796         1.497716
 C         2.499106        -1.082964         0.407664
 H        -0.297160        -1.140278         0.163974
 H        -0.533177         0.254151        -0.937760
 H         0.292118        -1.325777        -1.496036
 H         2.726819         0.221050        -2.014666
 H         1.975383         1.670692        -1.435169
 H         4.525981         1.486207        -0.245986
 H         3.012436         1.892421         1.957887
 H         4.385529        -1.337906         2.412972
 H         2.959069        -1.830638        -0.276564
 H         1.899303        -1.495270         1.183620
