19
Iteration:  4346charge 0 multiplicity 1
 C         0.217083        -0.490196        -0.836502
 C         1.520851        -0.001773        -0.217123
 C         2.529278         0.902277        -1.017421
 C         3.552467         1.035779         0.086222
 C         2.684621         0.905793         1.449870
 O         1.334342         0.581705         0.984874
 C         3.566887        -0.333777         0.860878
 O         4.623189        -0.827428         1.598329
 C         2.580980        -1.228764         0.187908
 H         0.336835        -1.577050        -1.049742
 H        -0.619968        -0.132310        -0.123684
 H         0.027939         0.149552        -1.748264
 H         2.885935         0.277359        -1.906670
 H         2.098022         1.876192        -1.336369
 H         4.395139         1.752684         0.076026
 H         2.864935         1.480241         2.395216
 H         5.397008        -0.526609         1.027851
 H         3.063483        -1.695605        -0.726985
 H         1.935085        -1.909805         0.832942
