19
Iteration:   698
 C         0.148604        -0.452987        -0.799526
 C         1.534229        -0.095737        -0.213774
 C         2.525303         0.641331        -1.106775
 C         3.569662         0.915073        -0.059384
 C         2.831249         0.972125         1.289723
 O         1.457779         0.764554         1.047579
 C         3.551825        -0.224483         0.960021
 O         4.666581        -0.715712         1.470066
 C         2.386226        -1.218314         0.393325
 H        -0.289151        -1.442377        -0.434783
 H        -0.746497         0.237844        -0.473544
 H         0.046805        -0.443560        -1.857940
 H         2.847369        -0.218837        -1.857400
 H         2.197391         1.532744        -1.565339
 H         4.504514         1.531675        -0.244294
 H         3.221096         1.539086         2.140939
 H         4.506134        -1.036503         2.421613
 H         2.853780        -1.947228        -0.280553
 H         1.846847        -1.727089         1.230653
