19
Iteration:  2076
 C         0.214534        -0.539002        -0.751443
 C         1.587451        -0.084658        -0.222179
 C         2.519785         0.863668        -1.013283
 C         3.545119         1.039791         0.073356
 C         2.682667         0.977203         1.394844
 O         1.341493         0.644349         1.006930
 C         3.577365        -0.205642         0.907038
 O         4.682706        -0.845222         1.441116
 C         2.562990        -1.178113         0.237753
 H         0.092110        -1.743802        -0.902026
 H        -0.654320        -0.185374        -0.126747
 H        -0.007481        -0.211129        -1.794264
 H         2.832737         0.401682        -2.006904
 H         1.986525         1.794015        -1.181487
 H         4.402856         1.590981        -0.055734
 H         2.849140         1.504143         2.358377
 H         4.480647        -1.716871         1.679958
 H         2.969554        -1.656404        -0.677018
 H         1.924649        -1.794355         0.953897
