19
Iteration:  3520
 C         0.185056        -0.355521        -0.889646
 C         1.573450        -0.120437        -0.295673
 C         2.580163         0.810964        -1.031684
 C         3.541700         0.950623         0.126132
 C         2.595292         0.845917         1.436391
 O         1.375466         0.592822         0.999267
 C         3.518634        -0.265717         0.985432
 O         4.762405        -0.721305         1.431800
 C         2.532498        -1.232806         0.272466
 H        -0.602306         0.442805        -0.544033
 H         0.216994        -0.226281        -1.992396
 H        -0.295551        -1.341402        -0.561909
 H         3.015323         0.436465        -1.878219
 H         1.957999         1.749111        -1.163744
 H         4.423330         1.719095         0.138062
 H         2.711390         1.733352         2.127683
 H         4.675725        -1.176636         2.318063
 H         3.011712        -1.766226        -0.574160
 H         1.901159        -1.873927         0.918343
