19
Iteration:  4006charge 0 multiplicity 1
 C         0.222846        -0.508868        -0.855879
 C         1.513632        -0.055472        -0.227317
 C         2.436041         0.983578        -0.993517
 C         3.513845         1.035376         0.172324
 C         2.718550         0.882596         1.400506
 O         1.329799         0.588627         1.069394
 C         3.582181        -0.331570         0.833676
 O         4.703058        -0.785405         1.545043
 C         2.640565        -1.205828         0.089990
 H        -0.523520         0.178891        -0.422396
 H         0.236594        -0.102948        -1.897827
 H         0.081138        -1.569823        -0.852035
 H         2.941363         0.740301        -1.995057
 H         1.994501         1.966355        -1.295491
 H         4.438736         1.573878         0.255445
 H         2.898511         1.333531         2.350772
 H         4.291412        -1.470628         2.041887
 H         3.003029        -1.812253        -0.781710
 H         2.119013        -2.044328         0.661608
