19
Iteration:  2609charge 0 multiplicity 1
 C         0.190626        -0.644921        -0.882582
 C         1.523096        -0.042454        -0.241919
 C         2.558406         0.877591        -1.043436
 C         3.559613         1.079027         0.080425
 C         2.733704         0.896546         1.355684
 O         1.314396         0.700315         1.044651
 C         3.649862        -0.225396         0.848740
 O         4.594268        -0.955891         1.564420
 C         2.558157        -1.092905         0.217433
 H        -0.731327        -0.075978        -0.388962
 H         0.027019        -0.783096        -1.944362
 H         0.187427        -1.755944        -0.631991
 H         2.921005         0.319410        -1.983915
 H         2.166186         1.925199        -1.317027
 H         4.441137         1.869766         0.295034
 H         2.901513         1.401909         2.320549
 H         4.829380        -0.349098         2.336494
 H         2.886938        -1.826417        -0.553117
 H         2.085450        -1.567584         1.035746
