19
Iteration:  4640
 C         0.277748        -0.549387        -0.970774
 C         1.521205        -0.011610        -0.139323
 C         2.473051         0.913551        -1.011576
 C         3.631920         0.994691         0.096333
 C         2.761806         0.876830         1.402631
 O         1.369504         0.719071         1.087898
 C         3.462136        -0.310353         0.867806
 O         4.708844        -0.764389         1.477446
 C         2.427751        -1.197816         0.254448
 H         0.622060        -1.592975        -1.121627
 H        -0.601785        -0.676051        -0.352717
 H         0.130110        -0.212587        -2.033795
 H         2.869975         0.523690        -1.911133
 H         1.736518         1.779860        -1.240533
 H         4.574904         1.453248         0.038356
 H         3.029966         1.487173         2.296664
 H         4.497366        -1.663855         1.833946
 H         2.883772        -1.793059        -0.575098
 H         1.874266        -1.916836         0.959970
