19
Iteration:  1730
 C         0.216938        -0.425415        -0.721665
 C         1.525842        -0.027598        -0.231325
 C         2.460201         0.728290        -1.117944
 C         3.559923         0.991726         0.025295
 C         2.760938         0.840300         1.325845
 O         1.398150         0.698969         1.077767
 C         3.594154        -0.271551         0.802414
 O         4.707880        -0.753788         1.521271
 C         2.452702        -1.200380         0.269849
 H        -0.332449        -1.030226         0.020636
 H        -0.378757         0.340794        -1.146874
 H         0.313905        -1.150171        -1.552562
 H         2.896473         0.196599        -1.945675
 H         2.062710         1.655191        -1.457688
 H         4.348924         1.747374        -0.076241
 H         2.952663         1.426518         2.220034
 H         4.449885        -1.073869         2.394804
 H         2.629976        -1.910763        -0.523130
 H         2.054684        -1.702389         1.178451
