19
Iteration:  2331charge 0 multiplicity 1
 C         0.281238        -0.535268        -0.781075
 C         1.560880        -0.091869        -0.191888
 C         2.494331         0.875654        -1.031040
 C         3.581433         1.091494         0.041851
 C         2.737072         0.952963         1.320198
 O         1.379113         0.637791         1.011054
 C         3.532399        -0.272974         0.855642
 O         4.543172        -0.813580         1.641959
 C         2.518254        -1.230079         0.173836
 H        -0.433482         0.269501        -0.825818
 H         0.557455        -0.984698        -1.815303
 H        -0.092786        -1.435102        -0.099416
 H         2.826661         0.284032        -1.988903
 H         2.048422         1.824074        -1.048579
 H         4.349355         1.776314        -0.041400
 H         2.894419         1.559067         2.223454
 H         5.368332        -1.105821         1.100654
 H         2.707826        -1.894181        -0.690619
 H         2.080870        -1.715537         1.023217
