19
Iteration:  4727charge 0 multiplicity 1
 C         0.220625        -0.362535        -0.828172
 C         1.532360        -0.055912        -0.183206
 C         2.490095         0.946330        -0.991837
 C         3.524200         0.966888         0.041481
 C         2.753673         0.837119         1.330756
 O         1.430776         0.536549         1.079539
 C         3.560274        -0.351774         0.788312
 O         4.659057        -0.734659         1.626526
 C         2.504926        -1.276207         0.094979
 H        -0.371612        -1.100187        -0.209960
 H        -0.479022         0.465316        -0.950940
 H         0.319623        -0.825270        -1.866135
 H         2.914040         0.603590        -1.901718
 H         2.042118         1.970125        -1.386878
 H         4.403461         1.660667         0.103307
 H         2.974643         1.490474         2.201275
 H         4.365798        -0.452184         2.548127
 H         2.866931        -1.864969        -0.787883
 H         2.034977        -1.990694         0.857159
