19
Iteration:  2611charge 0 multiplicity 1
 C         0.197939        -0.639543        -0.879864
 C         1.510985        -0.054175        -0.247546
 C         2.563967         0.884385        -1.060789
 C         3.563819         1.086882         0.099993
 C         2.736136         0.906388         1.350159
 O         1.332812         0.694389         1.048585
 C         3.635907        -0.229763         0.851558
 O         4.598751        -0.960786         1.567217
 C         2.554244        -1.084208         0.225174
 H        -0.705952        -0.111287        -0.404294
 H        -0.018028        -0.866288        -1.971446
 H         0.221611        -1.809929        -0.661590
 H         2.907514         0.367338        -1.922874
 H         2.083519         1.926358        -1.339561
 H         4.425479         1.907012         0.278771
 H         2.914378         1.443900         2.280807
 H         4.833798        -0.422407         2.301932
 H         2.804161        -1.839561        -0.533726
 H         2.009481        -1.533076         0.981894
