19
Iteration:  4956charge 0 multiplicity 1
 C         0.226480        -0.365741        -0.970574
 C         1.522520        -0.104933        -0.170039
 C         2.494901         0.714874        -0.989370
 C         3.566254         0.923890         0.046697
 C         2.771904         0.918707         1.295767
 O         1.355867         0.639439         1.103349
 C         3.520871        -0.309129         0.864971
 O         4.744676        -0.684885         1.429913
 C         2.462615        -1.198764         0.396532
 H        -0.111715        -1.447367        -1.072631
 H        -0.556045         0.361232        -0.656430
 H         0.480910         0.111627        -1.931095
 H         2.826050         0.121475        -1.827802
 H         1.910137         1.695569        -1.188485
 H         4.474150         1.397848        -0.020724
 H         2.920989         1.518199         2.242075
 H         4.528678        -1.038335         2.303050
 H         2.727586        -1.937194        -0.353137
 H         1.945794        -1.759883         1.213026
