19
Iteration:  2539
 C         0.215844        -0.379697        -0.919392
 C         1.481939        -0.089977        -0.254912
 C         2.541120         0.818574        -0.994590
 C         3.547572         1.074552         0.152797
 C         2.661080         0.778781         1.382631
 O         1.294022         0.572138         1.035736
 C         3.611144        -0.287389         0.804644
 O         4.756728        -0.746918         1.531241
 C         2.531617        -1.239474         0.253018
 H        -0.015852         0.511522        -1.418215
 H         0.375606        -1.165894        -1.721024
 H        -0.640771        -0.578510        -0.273419
 H         2.875204         0.200487        -1.974743
 H         2.000086         1.684429        -1.361856
 H         4.281596         1.881783         0.116675
 H         2.956565         1.252899         2.320852
 H         4.794697        -0.185284         2.358036
 H         2.883807        -1.918293        -0.561394
 H         2.130802        -1.756522         1.281067
