19
Iteration:  3955charge 0 multiplicity 1
 C         0.284445        -0.459826        -1.011779
 C         1.523349        -0.040711        -0.235336
 C         2.536522         0.914150        -0.882381
 C         3.476140         1.026042         0.172592
 C         2.605669         0.872867         1.463581
 O         1.294935         0.625172         1.118794
 C         3.501419        -0.312816         0.967829
 O         4.817706        -0.779253         1.270967
 C         2.524011        -1.213697         0.208721
 H        -0.554673         0.163531        -0.583921
 H         0.408203        -0.575505        -2.125675
 H         0.299257        -1.457223        -0.610081
 H         3.033681         0.344494        -1.791381
 H         2.272028         1.808167        -1.335528
 H         4.547332         1.558736         0.040891
 H         2.715348         1.365371         2.368117
 H         4.746254        -1.114253         2.234999
 H         2.909026        -1.938954        -0.497505
 H         1.936345        -1.874670         0.792415
