19
Iteration:  4038
 C         0.149213        -0.363132        -0.757996
 C         1.495327        -0.050576        -0.325686
 C         2.524999         0.921339        -0.987290
 C         3.551761         1.024071         0.195544
 C         2.682914         0.735564         1.431935
 O         1.332352         0.495868         1.016177
 C         3.590796        -0.325261         0.823137
 O         4.686751        -0.654624         1.561087
 C         2.688461        -1.218752        -0.005820
 H        -0.579200         0.402429        -0.402190
 H        -0.011101        -0.470568        -1.849876
 H        -0.293871        -1.226426        -0.249748
 H         3.024203         0.411279        -1.798273
 H         2.077822         1.923995        -1.247426
 H         4.430455         1.635580         0.212385
 H         2.840572         1.054834         2.428095
 H         4.340379        -1.091619         2.382476
 H         3.158354        -1.665185        -0.916180
 H         2.046439        -1.872619         0.643639
