19
Iteration:  3427charge 0 multiplicity 1
 C         0.287752        -0.545501        -0.827843
 C         1.587989        -0.032126        -0.266206
 C         2.556314         0.925369        -0.972395
 C         3.508029         1.093504         0.186982
 C         2.677842         0.829929         1.401408
 O         1.321362         0.674907         0.959915
 C         3.524842        -0.279076         0.910490
 O         4.670320        -0.921647         1.398885
 C         2.509709        -1.128515         0.254624
 H        -0.109103         0.025197        -1.670741
 H         0.383420        -1.494762        -1.392598
 H        -0.567245        -0.675513        -0.107348
 H         3.089724         0.298623        -1.824995
 H         1.961234         1.761339        -1.295519
 H         4.498629         1.749913         0.113440
 H         2.635108         1.259180         2.383978
 H         5.009158        -0.584909         2.226011
 H         2.939990        -1.746265        -0.587666
 H         1.997721        -1.766703         1.093552
