19
Iteration:  4617
 C         0.214548        -0.455225        -0.834171
 C         1.572358        -0.078323        -0.204085
 C         2.464922         0.814179        -1.013495
 C         3.556120         0.987953         0.100375
 C         2.701978         0.880371         1.352593
 O         1.351506         0.702733         1.009834
 C         3.599811        -0.317643         0.791167
 O         4.645965        -0.780144         1.616705
 C         2.582718        -1.187530         0.206084
 H         0.200153        -1.267326        -1.562910
 H        -0.405338        -0.675498         0.053372
 H        -0.133447         0.434006        -1.418394
 H         2.886179         0.447160        -1.892063
 H         1.958223         1.859997        -1.096554
 H         4.215671         1.757466        -0.060491
 H         3.007466         1.542545         2.133800
 H         4.516696        -1.701679         1.767054
 H         3.015067        -1.740577        -0.676369
 H         2.009676        -1.898622         0.879656
