19
Iteration:    77
 C         0.228228        -0.338436        -0.667966
 C         1.570466        -0.132796        -0.069110
 C         2.479769         0.660228        -1.148766
 C         3.506225         0.932192        -0.052476
 C         2.751543         0.959596         1.234369
 O         1.409574         0.754697         0.921471
 C         3.533263        -0.311809         0.883354
 O         4.696939        -0.715360         1.485707
 C         2.473749        -1.266314         0.411223
 H        -0.353632        -1.107661        -0.216350
 H        -0.294470         0.631546        -0.673050
 H         0.408866        -0.711561        -1.635570
 H         2.930124         0.021642        -1.904920
 H         1.930704         1.530498        -1.535319
 H         4.353553         1.476331        -0.055811
 H         3.020479         1.571131         2.150304
 H         4.358390        -0.952637         2.384434
 H         2.832168        -1.907766        -0.358661
 H         2.131332        -1.965631         1.164241
