19
Iteration:  4378charge 0 multiplicity 1
 C         0.276329        -0.568820        -0.854345
 C         1.580842        -0.067007        -0.284825
 C         2.559928         0.872910        -0.970573
 C         3.495659         1.085817         0.158895
 C         2.725664         0.943869         1.493769
 O         1.326683         0.749604         0.920751
 C         3.470697        -0.323133         0.904703
 O         4.719008        -0.933448         1.406488
 C         2.470434        -1.217147         0.303986
 H         0.305156        -1.399115        -1.605761
 H        -0.375710        -0.983107         0.025700
 H        -0.245753         0.338380        -1.294163
 H         3.076116         0.485567        -1.921364
 H         1.995837         1.819008        -1.374774
 H         4.347210         1.780890         0.133191
 H         2.721347         1.525656         2.468289
 H         5.206978        -0.191858         1.710982
 H         2.976101        -1.960744        -0.367496
 H         1.842995        -1.953319         0.895328
