19
Iteration:  3973charge 0 multiplicity 1
 C         0.318890        -0.561896        -0.978221
 C         1.587310        -0.039128        -0.218714
 C         2.472231         0.942105        -0.993828
 C         3.525940         1.070214         0.219951
 C         2.703247         0.882216         1.466522
 O         1.307768         0.592345         1.069769
 C         3.522403        -0.274358         0.883831
 O         4.746017        -0.846837         1.291338
 C         2.456520        -1.183172         0.300864
 H        -0.512952         0.022280        -0.549579
 H         0.589030        -0.191229        -1.965257
 H         0.054683        -1.610796        -1.051263
 H         3.057589         0.658095        -1.933865
 H         1.927081         1.912939        -1.079294
 H         4.303108         1.716574         0.388952
 H         2.766953         1.490870         2.401578
 H         4.634811        -1.184118         2.243574
 H         2.867145        -1.739045        -0.572167
 H         1.951110        -1.797492         1.098120
