19
Iteration:  4907
 C         0.169554        -0.591126        -0.713991
 C         1.555953        -0.108861        -0.186845
 C         2.657049         0.910668        -1.079737
 C         3.625000         0.954389         0.058897
 C         2.681692         0.949504         1.408242
 O         1.350500         0.731078         0.946889
 C         3.497833        -0.216392         0.954985
 O         4.657806        -0.866328         1.426325
 C         2.473215        -1.161316         0.215032
 H         0.085135        -1.626495        -0.465860
 H        -0.605534        -0.014942        -0.195884
 H         0.065977        -0.410799        -1.782855
 H         3.109813         0.373109        -2.002396
 H         2.235439         1.861078        -1.099562
 H         4.554604         1.690043         0.140035
 H         2.683063         1.755228         2.154523
 H         4.371210        -1.490940         2.163558
 H         2.989097        -1.648392        -0.664105
 H         1.992775        -1.921521         0.825031
