19
Iteration:  2278charge 0 multiplicity 1
 C         0.210853        -0.360791        -0.853855
 C         1.533782        -0.180449        -0.158165
 C         2.531150         0.807241        -0.972043
 C         3.491278         0.985599         0.133747
 C         2.664731         0.916296         1.325373
 O         1.294134         0.661572         0.956425
 C         3.533396        -0.324834         0.904924
 O         4.801185        -0.730599         1.462054
 C         2.566819        -1.279454         0.213272
 H         0.042894         0.326630        -1.665743
 H         0.037243        -1.473102        -1.172851
 H        -0.525122        -0.101593        -0.014517
 H         3.063222         0.188021        -1.762651
 H         2.070554         1.662867        -1.235360
 H         4.322821         1.581021         0.163785
 H         2.846337         1.493746         2.247261
 H         4.647933        -0.529267         2.464712
 H         2.825932        -1.534991        -0.805580
 H         2.297250        -2.033596         0.889578
