19
Iteration:  1374
 C         0.083556        -0.362043        -0.698817
 C         1.526667        -0.136525        -0.179547
 C         2.530037         0.746571        -1.103165
 C         3.595216         0.844456        -0.071495
 C         2.781151         0.944954         1.301026
 O         1.388122         0.696991         0.964072
 C         3.539450        -0.313402         0.895307
 O         4.764163        -0.652243         1.494817
 C         2.454441        -1.270290         0.388567
 H        -0.519273        -0.822471         0.059689
 H        -0.284177         0.584588        -0.916172
 H         0.100217        -0.917532        -1.705362
 H         2.718100         0.261602        -2.110234
 H         2.002137         1.741861        -1.242476
 H         4.511002         1.538733        -0.130643
 H         2.788433         1.615546         2.158231
 H         4.680017        -1.333474         2.133414
 H         3.082455        -1.900077        -0.249974
 H         1.901998        -1.685613         1.202077
