19
Iteration:  4116
 C         0.408078        -0.582829        -1.008949
 C         1.537599        -0.012667        -0.236466
 C         2.401406         0.991660        -0.823042
 C         3.448816         1.085412         0.284581
 C         2.698027         0.823198         1.524589
 O         1.338698         0.648155         1.063780
 C         3.503585        -0.314861         0.817638
 O         4.787187        -0.816581         1.310559
 C         2.519013        -1.156781         0.165399
 H        -0.010297         0.204135        -1.723606
 H         0.547830        -1.638331        -1.399356
 H        -0.416459        -0.650415        -0.315681
 H         2.898334         0.458784        -1.740835
 H         1.840405         1.808407        -1.251686
 H         4.344617         1.840702         0.208440
 H         2.859618         1.205708         2.556711
 H         4.569217        -1.627841         1.897454
 H         2.685542        -1.700142        -0.803521
 H         2.009592        -1.955144         0.826346
