19
Iteration:  2466
 C         0.267396        -0.574542        -0.780916
 C         1.562088        -0.098482        -0.303360
 C         2.482100         0.928371        -1.036949
 C         3.507943         1.156525         0.135716
 C         2.727784         0.824523         1.428280
 O         1.388917         0.666630         0.954575
 C         3.538484        -0.306714         0.841825
 O         4.634592        -0.779172         1.604961
 C         2.530174        -1.182523         0.202663
 H        -0.388697         0.199300        -1.422651
 H         0.506366        -1.366630        -1.496272
 H        -0.391479        -0.886479         0.008644
 H         3.134950         0.505154        -1.805282
 H         1.955616         1.751943        -1.465814
 H         4.349551         1.792687         0.220733
 H         2.894551         1.157049         2.470403
 H         4.843087        -1.751070         1.340394
 H         2.984294        -1.731171        -0.592426
 H         1.880219        -1.587516         0.874879
