19
Iteration:  3479charge 0 multiplicity 1
 C         0.274812        -0.425954        -0.841207
 C         1.551509        -0.098148        -0.206390
 C         2.489401         0.864807        -1.030356
 C         3.513977         0.995561         0.120202
 C         2.781497         0.759468         1.404677
 O         1.399045         0.699692         1.022996
 C         3.556385        -0.301172         0.797898
 O         4.621105        -0.679620         1.623912
 C         2.531984        -1.272080         0.102171
 H        -0.335924         0.486273        -1.134048
 H         0.372691        -1.069138        -1.646742
 H        -0.534444        -1.020959        -0.269026
 H         2.719730         0.372459        -2.035027
 H         1.991028         1.831029        -1.248655
 H         4.195993         1.967455         0.187414
 H         2.839993         1.302054         2.338533
 H         4.437390        -1.520055         2.127059
 H         2.850300        -1.728690        -0.793722
 H         2.288887        -1.964918         0.891344
