19
Iteration:  1333charge 0 multiplicity 1
 C         0.162842        -0.457995        -0.660598
 C         1.531321        -0.144454        -0.102459
 C         2.520867         0.715494        -1.101856
 C         3.544658         0.993932        -0.085064
 C         2.813036         1.002008         1.245802
 O         1.471909         0.769854         1.035935
 C         3.501870        -0.258816         0.874793
 O         4.605630        -0.823191         1.522587
 C         2.482281        -1.279141         0.295082
 H        -0.191534        -1.423690        -0.387792
 H        -0.554683         0.344010        -0.375320
 H         0.258614        -0.499841        -1.799198
 H         3.005852         0.027198        -1.919225
 H         2.122997         1.575508        -1.505683
 H         4.400624         1.679890        -0.323519
 H         3.143840         1.571606         2.136930
 H         4.613845        -0.282938         2.381496
 H         2.744453        -1.673682        -0.721971
 H         2.070974        -2.075790         0.919889
