19
Iteration:  3222
 C         0.236589        -0.310864        -0.852523
 C         1.598629        -0.168604        -0.217885
 C         2.455149         0.890887        -0.988736
 C         3.533809         1.059112         0.158975
 C         2.654619         0.849684         1.365831
 O         1.327660         0.609890         0.959243
 C         3.572875        -0.396331         0.874597
 O         4.711420        -0.686678         1.525456
 C         2.584173        -1.316005         0.172104
 H         0.039191         0.535052        -1.419547
 H         0.279623        -1.304759        -1.457955
 H        -0.576435        -0.508703        -0.120613
 H         2.849636         0.530598        -1.949011
 H         1.924122         1.884155        -1.156241
 H         4.470202         1.678747         0.203138
 H         2.768156         1.300151         2.325342
 H         4.291368        -1.063912         2.353201
 H         3.031525        -1.892576        -0.622496
 H         2.207071        -1.983348         0.865584
