19
Iteration:  3773charge 0 multiplicity 1
 C         0.213131        -0.386670        -0.855768
 C         1.525851        -0.089787        -0.256012
 C         2.545412         0.872052        -1.028904
 C         3.544706         0.959490         0.144455
 C         2.761985         0.810549         1.429029
 O         1.345424         0.505613         1.053735
 C         3.557525        -0.270658         0.869808
 O         4.707686        -0.628122         1.594594
 C         2.469425        -1.237827         0.042716
 H        -0.443579         0.431842        -0.587301
 H         0.098676        -0.178231        -1.907636
 H        -0.171106        -1.391794        -0.459677
 H         2.894029         0.476186        -1.979662
 H         1.979230         1.902921        -1.304539
 H         4.339161         1.635762         0.128187
 H         2.925744         1.480285         2.331365
 H         4.571676        -1.391959         2.153636
 H         2.993819        -1.696083        -0.813931
 H         2.086323        -1.954880         0.854046
