19
Iteration:  1976
 C         0.195461        -0.519028        -0.882881
 C         1.486873        -0.146879        -0.192002
 C         2.515181         0.802065        -0.979359
 C         3.497321         1.034410         0.139868
 C         2.725667         0.958372         1.440232
 O         1.347312         0.768998         1.053212
 C         3.513320        -0.271159         0.939692
 O         4.774782        -0.844310         1.302627
 C         2.562628        -1.199040         0.238895
 H        -0.442223        -1.243097        -0.182400
 H        -0.493537         0.398447        -1.086258
 H         0.411715        -1.043949        -1.840030
 H         3.034232         0.265818        -1.822745
 H         1.916614         1.716748        -1.290509
 H         4.375457         1.773846         0.071765
 H         2.861221         1.454551         2.387466
 H         4.675735        -1.104761         2.237371
 H         3.048203        -1.669250        -0.672769
 H         2.240354        -2.002447         0.976099
