19
Iteration:  1431
 C         0.152793        -0.603037        -0.746069
 C         1.496534        -0.031171        -0.151513
 C         2.631898         0.752638        -1.095292
 C         3.556296         1.017778        -0.022315
 C         2.773440         0.978855         1.276637
 O         1.362063         0.756842         1.156306
 C         3.594974        -0.243075         0.748061
 O         4.695317        -0.889593         1.444976
 C         2.409199        -1.090249         0.320996
 H        -0.550180        -0.461558         0.022266
 H        -0.270912        -0.040105        -1.581762
 H         0.183503        -1.690319        -0.901314
 H         3.102792        -0.149290        -1.754448
 H         2.298294         1.518304        -1.709829
 H         4.306429         1.693357        -0.093617
 H         2.955956         1.527706         2.214244
 H         4.513703        -0.850587         2.447912
 H         2.664830        -1.865947        -0.428476
 H         2.036347        -1.689580         1.122885
