19
Iteration:  4885charge 0 multiplicity 1
 C         0.161531        -0.454004        -0.660838
 C         1.592324        -0.059144        -0.293237
 C         2.534229         0.863564        -1.093560
 C         3.534867         1.062141         0.102153
 C         2.698175         0.859375         1.294672
 O         1.365838         0.671279         0.988700
 C         3.558373        -0.299360         0.861095
 O         4.603692        -0.859052         1.589646
 C         2.622864        -1.173151         0.129357
 H         0.012054        -1.395961        -0.180823
 H        -0.498750         0.283350        -0.173319
 H        -0.070763        -0.480900        -1.717780
 H         3.030443         0.173929        -1.879344
 H         2.136976         1.800138        -1.422641
 H         4.455315         1.735211        -0.011583
 H         2.930894         1.339823         2.279884
 H         4.388409        -1.184238         2.485196
 H         3.026240        -1.797435        -0.688479
 H         2.184994        -1.819244         0.901929
