19
Iteration:  2131charge 0 multiplicity 1
 C         0.215475        -0.428216        -0.903543
 C         1.520747        -0.103924        -0.192102
 C         2.484746         0.878842        -0.938698
 C         3.545300         0.901499         0.049180
 C         2.717605         0.907833         1.349962
 O         1.354758         0.608529         1.076069
 C         3.538938        -0.261668         0.972049
 O         4.737382        -0.756845         1.506767
 C         2.479794        -1.233535         0.222822
 H         0.226141        -1.605077        -1.180245
 H        -0.624943        -0.263664        -0.209130
 H         0.028176         0.230542        -1.804834
 H         2.776109         0.457603        -1.899968
 H         1.994600         1.755731        -1.270137
 H         4.332309         1.584179         0.124052
 H         3.019733         1.697964         2.053085
 H         5.445456        -0.316657         1.059131
 H         2.839649        -1.731079        -0.686774
 H         1.992673        -2.129716         0.714739
