19
Iteration:  3916
 C         0.229802        -0.366460        -0.836896
 C         1.573866        -0.072952        -0.287195
 C         2.461411         0.916093        -0.946690
 C         3.528050         1.076502         0.142306
 C         2.688910         0.776529         1.408100
 O         1.316484         0.532498         1.053696
 C         3.567019        -0.294398         0.805505
 O         4.726142        -0.684708         1.529178
 C         2.599573        -1.321677         0.138538
 H        -0.265348         0.561225        -1.135737
 H         0.038357        -0.736222        -1.821185
 H        -0.485055        -0.884877        -0.109189
 H         2.951403         0.551598        -1.859470
 H         1.936694         1.947794        -1.193700
 H         4.328835         1.847013         0.031224
 H         2.786971         1.155560         2.413239
 H         4.552146        -1.446098         2.033791
 H         3.078505        -1.812834        -0.743275
 H         2.153295        -2.070768         0.904192
