19
Iteration:    43
 C         0.036321        -0.716395        -0.758727
 C         1.456772        -0.071082        -0.186016
 C         2.547225         0.792510        -1.112795
 C         3.610450         0.943265        -0.000454
 C         2.885806         1.085891         1.245752
 O         1.492195         0.846468         0.971069
 C         3.522694        -0.216158         0.940044
 O         4.696081        -0.889405         1.496243
 C         2.399753        -1.103984         0.426606
 H        -0.082317        -1.594362        -0.100181
 H        -0.855484        -0.157459        -0.652114
 H         0.208097        -0.961465        -1.827200
 H         2.904723         0.130939        -2.009946
 H         2.123051         1.662584        -1.538701
 H         4.485259         1.530399        -0.088502
 H         3.062097         1.740612         2.077568
 H         4.456391        -1.669358         1.983063
 H         2.833115        -1.758016        -0.332385
 H         1.888335        -1.550904         1.284730
