19
Iteration:  2871charge 0 multiplicity 1
 C         0.150176        -0.558269        -0.940586
 C         1.479303        -0.079142        -0.223500
 C         2.566408         0.839553        -0.994541
 C         3.628693         0.930425         0.086928
 C         2.722308         0.962217         1.367678
 O         1.282329         0.682586         0.993269
 C         3.604003        -0.210710         1.002625
 O         4.757552        -0.842473         1.512329
 C         2.478248        -1.130478         0.221362
 H        -0.574550         0.213363        -0.638803
 H         0.309649        -0.584569        -1.958234
 H         0.009392        -1.626291        -0.662769
 H         2.836165         0.398042        -1.933412
 H         2.189221         1.794145        -1.217380
 H         4.434451         1.605742         0.097905
 H         2.708972         1.701047         2.205117
 H         4.539114        -1.168921         2.408467
 H         2.974769        -1.715321        -0.651985
 H         1.924469        -1.859148         0.950135
