19
Iteration:  4777charge 0 multiplicity 1
 C         0.250307        -0.539482        -0.768795
 C         1.592898        -0.015493        -0.239514
 C         2.569076         0.859292        -0.997082
 C         3.545559         1.088941         0.169643
 C         2.670950         0.916684         1.378905
 O         1.341124         0.642810         1.006892
 C         3.475348        -0.315395         0.993783
 O         4.700544        -0.873845         1.374541
 C         2.510404        -1.111082         0.196197
 H        -0.617296        -0.536880        -0.157882
 H        -0.082283         0.105755        -1.618277
 H         0.335090        -1.523964        -1.192973
 H         2.894240         0.448218        -2.008828
 H         2.113035         1.686680        -1.352577
 H         4.294321         1.842664         0.191485
 H         2.919762         1.530724         2.296653
 H         4.563837        -1.748131         1.741361
 H         3.067477        -1.595526        -0.597275
 H         2.009058        -1.869642         0.728135
