19
Iteration:   533charge 0 multiplicity 1
 C         0.099819        -0.261987        -0.818674
 C         1.510481        -0.248709        -0.147437
 C         2.501286         0.547663        -1.091737
 C         3.516915         0.941671        -0.043392
 C         2.819715         0.938123         1.259496
 O         1.432131         0.768559         1.004519
 C         3.591308        -0.243219         0.858873
 O         4.702238        -0.676544         1.542538
 C         2.497265        -1.311428         0.431230
 H        -0.680331        -0.738669        -0.256577
 H        -0.175871         0.870938        -0.725372
 H        -0.008348        -0.506156        -1.875546
 H         3.093736        -0.114125        -1.925981
 H         1.918100         1.282855        -1.584288
 H         4.310472         1.492298        -0.275080
 H         2.961278         1.702125         2.003481
 H         4.602304        -0.757408         2.472951
 H         2.833248        -1.937556        -0.367791
 H         2.097660        -1.869828         1.328413
