19
Iteration:   192charge 0 multiplicity 1
 C         0.254566        -0.590354        -0.674483
 C         1.556022        -0.043688        -0.256250
 C         2.526914         0.753056        -1.178636
 C         3.581774         0.908771        -0.019034
 C         2.763293         0.985214         1.306169
 O         1.393858         0.880781         1.002008
 C         3.493986        -0.296971         0.857966
 O         4.720188        -0.821666         1.502113
 C         2.368383        -1.143943         0.362121
 H        -0.284197        -0.890998         0.315285
 H        -0.375603         0.128091        -1.131373
 H         0.337417        -1.653161        -1.166751
 H         2.884765         0.195997        -2.074402
 H         2.135639         1.733308        -1.312824
 H         4.539439         1.393085        -0.073791
 H         2.993049         1.485377         2.286728
 H         4.527579        -1.306264         2.355104
 H         2.643652        -2.033854        -0.321728
 H         1.776009        -1.606900         1.201353
