19
Iteration:  4996charge 0 multiplicity 1
 C         0.145972        -0.330263        -0.707366
 C         1.540081        -0.144248        -0.216248
 C         2.532824         0.748747        -1.067348
 C         3.553032         0.943649         0.094536
 C         2.702578         0.843757         1.303763
 O         1.351070         0.682836         0.906665
 C         3.595068        -0.348217         0.823637
 O         4.709499        -0.712056         1.587497
 C         2.543179        -1.168833         0.219806
 H        -0.407224        -1.087019        -0.136392
 H        -0.309749         0.619582        -0.498243
 H        -0.070951        -0.671243        -1.751539
 H         3.050693         0.049668        -1.901515
 H         2.117361         1.649199        -1.364979
 H         4.430937         1.564977         0.192187
 H         3.023785         1.281187         2.264256
 H         4.376839        -0.701361         2.519507
 H         3.001974        -1.713614        -0.643331
 H         2.005059        -1.816923         0.925049
