19
Iteration:  2721charge 0 multiplicity 1
 C         0.167600        -0.417832        -0.878722
 C         1.517797        -0.161585        -0.249769
 C         2.496139         0.858207        -0.987444
 C         3.559072         1.009245         0.127556
 C         2.673711         0.901939         1.353679
 O         1.339325         0.687124         0.959595
 C         3.531853        -0.313876         0.912353
 O         4.761381        -0.716441         1.567258
 C         2.605674        -1.287346         0.219236
 H        -0.129896         0.341244        -1.571838
 H         0.356998        -1.479649        -1.381009
 H        -0.568837        -0.406860         0.078327
 H         2.797198         0.438219        -1.903518
 H         1.943304         1.914503        -1.257816
 H         4.411026         1.529163         0.127751
 H         2.704606         1.499707         2.282550
 H         4.526651        -1.557513         2.068293
 H         3.091766        -1.609568        -0.700972
 H         2.174372        -2.019446         0.794873
