19
Iteration:  3256charge 0 multiplicity 1
 C         0.215610        -0.371184        -0.965051
 C         1.540618        -0.097742        -0.250741
 C         2.510300         0.847400        -1.019238
 C         3.496767         0.995520         0.145811
 C         2.728515         0.876563         1.433297
 O         1.331392         0.558898         1.086965
 C         3.519673        -0.338407         0.893914
 O         4.789395        -0.738354         1.502377
 C         2.509000        -1.172359         0.212211
 H        -0.475661         0.394110        -1.176743
 H         0.568635        -0.675797        -2.057152
 H        -0.340142        -1.192698        -0.539586
 H         2.714159         0.158206        -1.815259
 H         2.029331         1.826720        -1.498283
 H         4.618245         1.449211         0.038606
 H         2.639193         1.394762         2.386363
 H         4.787178        -0.610928         2.523430
 H         2.932145        -1.791956        -0.584381
 H         1.889071        -1.718409         0.824063
