19
Iteration:  2261charge 0 multiplicity 1
 C         0.220570        -0.426185        -0.875092
 C         1.551443        -0.105787        -0.283942
 C         2.551496         0.767225        -1.068940
 C         3.536613         1.022244         0.091387
 C         2.649385         0.878214         1.467280
 O         1.337759         0.627379         1.073928
 C         3.519520        -0.272431         0.917863
 O         4.730643        -0.691620         1.418561
 C         2.537491        -1.226537         0.290936
 H         0.198391         0.166127        -1.831194
 H         0.157245        -1.458938        -1.066953
 H        -0.574613        -0.080634        -0.259289
 H         2.940257         0.199549        -1.901773
 H         1.949231         1.771236        -1.337461
 H         4.471224         1.686724         0.002914
 H         2.824855         1.499350         2.320042
 H         4.697701        -1.474632         2.065238
 H         3.148356        -1.853314        -0.408852
 H         1.832487        -1.823183         0.991780
