19
Iteration:  3643
 C         0.203279        -0.358982        -0.877790
 C         1.563231        -0.106276        -0.278843
 C         2.561730         0.841070        -1.011583
 C         3.514700         0.980035         0.151390
 C         2.693468         0.831588         1.404219
 O         1.329406         0.525043         1.047987
 C         3.575142        -0.325449         0.961692
 O         4.730034        -0.643656         1.488048
 C         2.535627        -1.180084         0.158614
 H        -0.188159         0.386834        -1.594044
 H        -0.051447        -1.320320        -1.367795
 H        -0.635768        -0.276378        -0.039180
 H         2.983489         0.199500        -1.809492
 H         2.200949         1.780526        -1.345617
 H         4.181312         1.779266         0.185103
 H         2.750911         1.355292         2.369340
 H         4.800126        -1.464538         1.970762
 H         2.869436        -1.577266        -0.781054
 H         1.915375        -1.905694         0.674056
