19
Iteration:   983charge 0 multiplicity 1
 C         0.131168        -0.477766        -0.741006
 C         1.553178        -0.068603        -0.168284
 C         2.476689         0.758941        -1.097659
 C         3.518413         1.007911         0.005343
 C         2.756584         0.902395         1.296510
 O         1.367146         0.768858         0.948712
 C         3.624880        -0.268269         0.839592
 O         4.772100        -0.842084         1.496718
 C         2.474416        -1.173104         0.406120
 H        -0.649483        -0.674210         0.032796
 H        -0.076486         0.281118        -1.416055
 H         0.312828        -1.493692        -1.241036
 H         2.764808         0.096096        -2.054496
 H         2.023522         1.675463        -1.407372
 H         4.358863         1.741354        -0.239431
 H         3.127881         1.490116         2.090366
 H         4.440733        -1.147641         2.382664
 H         2.540923        -2.151528        -0.187234
 H         2.048665        -1.575561         1.347842
