19
Iteration:  2710charge 0 multiplicity 1
 C         0.235685        -0.347754        -0.830423
 C         1.587773        -0.150659        -0.211058
 C         2.527916         0.818019        -0.968104
 C         3.578363         1.000150         0.105489
 C         2.687577         0.895051         1.322937
 O         1.306286         0.599463         0.951605
 C         3.508857        -0.307773         0.878436
 O         4.680422        -0.637923         1.543097
 C         2.580731        -1.311168         0.227670
 H         0.036576         0.525764        -1.439658
 H        -0.015647        -1.244314        -1.542296
 H        -0.670844        -0.434788        -0.050756
 H         2.963158         0.514559        -1.875856
 H         1.831221         1.793273        -1.101754
 H         4.427986         1.543560         0.058845
 H         2.838329         1.298084         2.326621
 H         4.575673        -1.392533         2.083999
 H         2.923309        -1.840419        -0.654594
 H         2.359294        -2.053038         0.908106
