19
Iteration:  1701
 C         0.215453        -0.555078        -0.822911
 C         1.543030        -0.129768        -0.169437
 C         2.402432         0.864467        -1.073477
 C         3.591068         0.932963         0.039229
 C         2.765425         1.048154         1.341767
 O         1.392894         0.788287         1.007361
 C         3.529503        -0.238103         0.953858
 O         4.703542        -0.853296         1.413524
 C         2.490776        -1.280253         0.432489
 H        -0.573788        -0.595125        -0.109421
 H        -0.092181         0.240872        -1.543211
 H         0.296627        -1.562036        -1.472150
 H         2.761546         0.592269        -2.047489
 H         1.925363         1.996257        -1.151283
 H         4.598048         1.548971         0.047161
 H         2.823018         1.813268         2.133578
 H         4.723430        -1.746806         1.131979
 H         2.881977        -1.813933        -0.499053
 H         2.199646        -1.896469         1.290219
