19
Iteration:  3537charge 0 multiplicity 1
 C         0.265298        -0.416829        -0.920522
 C         1.597080        -0.143101        -0.228280
 C         2.529836         0.842611        -0.978859
 C         3.473095         1.077866         0.157498
 C         2.696037         0.930548         1.397638
 O         1.232133         0.705861         0.998845
 C         3.539649        -0.343270         0.915452
 O         4.752337        -0.827880         1.387662
 C         2.520476        -1.258791         0.290131
 H        -0.326573         0.311247        -0.491899
 H         0.385394        -0.167957        -1.998423
 H        -0.031529        -1.404279        -0.698992
 H         3.058688         0.271838        -1.867768
 H         2.084124         1.734246        -1.376395
 H         4.329664         1.590206         0.164358
 H         2.896299         1.281182         2.402241
 H         4.689728        -0.818042         2.356905
 H         3.036040        -1.920714        -0.436924
 H         2.200750        -1.951402         1.088725
