19
Iteration:  1396charge 0 multiplicity 1
 C         0.218019        -0.448020        -0.769961
 C         1.563342        -0.195517        -0.193345
 C         2.450205         0.775658        -0.982535
 C         3.484977         0.856678        -0.003188
 C         2.760903         1.045232         1.290556
 O         1.444619         0.838346         0.963321
 C         3.494419        -0.346714         0.946466
 O         4.771337        -0.697043         1.410551
 C         2.444064        -1.289013         0.390731
 H        -0.306008        -0.491623         0.169613
 H        -0.231192         0.264403        -1.351260
 H         0.122422        -1.442215        -1.377845
 H         2.873169         0.365745        -1.968013
 H         1.886396         1.742286        -1.167419
 H         4.509541         1.313013        -0.221994
 H         3.040355         1.661525         2.168098
 H         4.557559        -1.526042         1.972144
 H         2.834358        -1.844869        -0.489363
 H         1.810779        -1.831336         1.064244
