19
Iteration:  2745
 C         0.276802        -0.634202        -0.839059
 C         1.509576        -0.025119        -0.287084
 C         2.565277         0.869540        -1.046131
 C         3.546396         1.034472         0.113703
 C         2.750819         0.891395         1.403412
 O         1.303233         0.683372         1.038233
 C         3.514017        -0.292058         0.919436
 O         4.707167        -0.841218         1.502299
 C         2.485412        -1.076496         0.203177
 H        -0.120021         0.039138        -1.633156
 H         0.586262        -1.694396        -1.346479
 H        -0.523477        -0.659299        -0.002325
 H         3.019722         0.338474        -1.908630
 H         2.097424         1.848687        -1.437252
 H         4.356945         1.803140         0.145825
 H         2.889941         1.438593         2.364281
 H         4.482530        -1.337327         2.259450
 H         2.795363        -1.538313        -0.703922
 H         2.006613        -1.679080         0.932482
