19
Iteration:  1573
 C         0.209327        -0.571166        -0.696609
 C         1.576240        -0.017275        -0.134036
 C         2.579207         0.781815        -1.080180
 C         3.551650         0.907193        -0.033274
 C         2.819244         0.947307         1.264094
 O         1.375242         0.836465         1.014325
 C         3.536974        -0.336481         0.845522
 O         4.666240        -0.721174         1.438597
 C         2.362123        -1.201400         0.405703
 H         0.064733        -1.613241        -0.397115
 H        -0.649599         0.041958        -0.271750
 H         0.252531        -0.540560        -1.788936
 H         2.943824         0.059527        -1.912864
 H         2.143297         1.594920        -1.522796
 H         4.439746         1.643651        -0.179964
 H         3.043381         1.416001         2.205966
 H         4.609150        -1.637714         1.872351
 H         2.601513        -1.963234        -0.368038
 H         1.810607        -1.708411         1.187593
