19
Iteration:   357
 C         0.142403        -0.344335        -0.737299
 C         1.560880        -0.166053        -0.227256
 C         2.475281         0.678365        -1.105524
 C         3.562865         0.917762        -0.098498
 C         2.764605         0.969370         1.273313
 O         1.367955         0.748722         0.987026
 C         3.554376        -0.303447         0.896688
 O         4.764971        -0.774082         1.542219
 C         2.490733        -1.203142         0.444469
 H        -0.453281        -0.092318         0.177543
 H        -0.099926         0.328543        -1.556380
 H        -0.238545        -1.363572        -1.113648
 H         2.874004         0.034099        -1.991004
 H         1.975958         1.580816        -1.397302
 H         4.421216         1.658982        -0.319116
 H         2.999819         1.698775         1.994006
 H         4.632047        -1.072179         2.457308
 H         2.833942        -1.939411        -0.317657
 H         1.858864        -1.767349         1.172619
