19
Iteration:  3505
 C         0.177565        -0.343852        -0.866458
 C         1.538686        -0.097701        -0.268346
 C         2.536704         0.858179        -1.015959
 C         3.571044         0.949800         0.130623
 C         2.761287         0.881566         1.381335
 O         1.298905         0.531749         0.990173
 C         3.514927        -0.294633         0.912570
 O         4.762315        -0.641717         1.563618
 C         2.507391        -1.223328         0.190091
 H        -0.419847         0.477427        -0.586429
 H         0.120295        -0.598575        -1.988767
 H        -0.321110        -1.197624        -0.504695
 H         2.830576         0.215324        -1.945564
 H         2.256239         1.833238        -1.389989
 H         4.422065         1.482873         0.074897
 H         2.771764         1.232775         2.404622
 H         4.614142        -1.466769         2.140374
 H         3.037411        -1.824511        -0.645183
 H         1.958005        -1.907658         0.943400
