19
Iteration:  1394charge 0 multiplicity 1
 C         0.223801        -0.438431        -0.765494
 C         1.561816        -0.215721        -0.209809
 C         2.448972         0.770117        -0.989144
 C         3.508490         0.863304        -0.001217
 C         2.754910         1.047044         1.272470
 O         1.434782         0.828421         0.967490
 C         3.490880        -0.348497         0.967522
 O         4.771883        -0.687995         1.414368
 C         2.449798        -1.293944         0.392461
 H        -0.349260        -0.486599         0.227361
 H        -0.278885         0.334669        -1.322266
 H         0.100598        -1.381186        -1.414359
 H         2.820560         0.467343        -1.921531
 H         1.861155         1.788332        -1.157735
 H         4.588222         1.296283        -0.203805
 H         3.104612         1.657365         2.084692
 H         4.560883        -1.494853         1.927532
 H         2.768045        -1.886949        -0.495342
 H         1.797944        -1.897638         1.089125
