19
Iteration:  2187charge 0 multiplicity 1
 C         0.159470        -0.492172        -0.725432
 C         1.532161        -0.086518        -0.261813
 C         2.560170         0.891107        -1.073318
 C         3.542146         1.054489         0.060744
 C         2.711151         0.927399         1.327030
 O         1.367907         0.577296         1.071431
 C         3.547532        -0.256368         0.884806
 O         4.670680        -0.798439         1.544146
 C         2.553920        -1.227992         0.110326
 H         0.262595        -0.931404        -1.785340
 H        -0.177127        -1.272529        -0.018825
 H        -0.570660         0.417898        -0.772950
 H         3.064578         0.324413        -1.872694
 H         2.016493         1.739383        -1.290332
 H         4.536126         1.641802         0.048216
 H         2.963955         1.435962         2.232004
 H         4.526632        -0.700600         2.532332
 H         2.917464        -1.738701        -0.762086
 H         2.101330        -1.857268         0.897874
