19
Iteration:  2419charge 0 multiplicity 1
 C         0.185851        -0.339712        -0.932360
 C         1.519915        -0.137633        -0.244464
 C         2.432989         0.791152        -1.007067
 C         3.487524         1.004337         0.078205
 C         2.725551         0.811014         1.360568
 O         1.358820         0.625447         0.991368
 C         3.574138        -0.306125         0.932829
 O         4.748931        -0.758144         1.669276
 C         2.578758        -1.262282         0.230136
 H        -0.516942         0.415536        -0.693272
 H         0.220222        -0.306684        -2.061624
 H        -0.428166        -1.222418        -0.599751
 H         2.751607         0.233491        -1.992667
 H         2.084548         1.758310        -1.245616
 H         4.333222         1.749703        -0.165023
 H         2.857652         1.428510         2.226887
 H         5.317671         0.036306         1.613194
 H         2.980224        -1.573809        -0.690059
 H         2.156797        -1.894504         0.962715
