19
Iteration:    31charge 0 multiplicity 1
 C         0.211213        -0.701012        -0.648060
 C         1.489703        -0.019865        -0.121103
 C         2.530990         0.784724        -1.115423
 C         3.592898         0.950135        -0.065120
 C         2.810534         1.025232         1.325457
 O         1.432624         0.966003         0.930865
 C         3.520239        -0.322529         0.891835
 O         4.660146        -0.840122         1.472258
 C         2.385297        -1.171130         0.413013
 H        -0.026232        -1.733693        -0.254789
 H        -0.636387        -0.105639        -0.702275
 H         0.479923        -0.982742        -1.720418
 H         2.971442         0.163372        -2.032387
 H         2.162553         1.726748        -1.392634
 H         4.659432         1.293574        -0.247270
 H         3.013205         1.783473         2.018702
 H         4.314141        -1.667357         1.927969
 H         2.641932        -1.864769        -0.416280
 H         1.983871        -1.911958         1.130922
