19
Iteration:   710
 C         0.217685        -0.511409        -0.728883
 C         1.519295        -0.099004        -0.142266
 C         2.508939         0.609639        -1.091788
 C         3.614098         0.976758        -0.061419
 C         2.809369         1.056005         1.327705
 O         1.393650         0.845956         1.033015
 C         3.526670        -0.247827         0.837296
 O         4.674409        -0.826514         1.512178
 C         2.416077        -1.203788         0.330333
 H         0.025455        -1.572143        -0.338934
 H        -0.477575         0.278599        -0.339023
 H         0.302829        -0.532083        -1.812566
 H         2.932607        -0.092934        -1.919052
 H         2.027367         1.425670        -1.672580
 H         4.485657         1.576579        -0.189675
 H         2.968693         1.879344         2.021285
 H         4.253346        -1.304912         2.215050
 H         2.710091        -1.898884        -0.507858
 H         1.878546        -1.783583         1.097635
