19
Iteration:  3934charge 0 multiplicity 1
 C         0.206381        -0.396493        -0.875963
 C         1.528956        -0.165887        -0.179214
 C         2.574112         0.913748        -0.987649
 C         3.450559         1.018372         0.240928
 C         2.664638         0.788904         1.482514
 O         1.318572         0.616481         0.998555
 C         3.567369        -0.359159         0.875901
 O         4.783207        -0.680201         1.385308
 C         2.523372        -1.169841         0.167176
 H        -0.427427         0.520967        -0.971859
 H         0.528533        -0.617759        -1.960465
 H        -0.326288        -1.303290        -0.588573
 H         2.888226         0.450070        -1.913994
 H         1.976432         1.687194        -1.333816
 H         4.426556         1.681690         0.355329
 H         2.914493         1.291215         2.360544
 H         4.701348        -1.289089         2.085742
 H         2.883156        -1.719686        -0.688437
 H         2.159558        -1.992694         0.759318
