19
Iteration:   943charge 0 multiplicity 1
 C         0.184275        -0.346965        -0.725799
 C         1.474699        -0.070012        -0.100200
 C         2.568193         0.633083        -1.132455
 C         3.538152         0.778257        -0.035567
 C         2.767499         1.004954         1.299485
 O         1.364938         0.724574         1.038158
 C         3.487364        -0.375801         0.919878
 O         4.765172        -0.618665         1.436892
 C         2.465580        -1.275800         0.321490
 H        -0.464664        -1.018089        -0.188686
 H        -0.375195         0.658108        -0.734473
 H         0.306962        -0.670822        -1.841136
 H         2.782892         0.056112        -1.940301
 H         2.287953         1.696715        -1.523404
 H         4.453178         1.271681         0.006538
 H         2.952213         1.783700         2.064224
 H         4.680195        -0.538290         2.406664
 H         3.001406        -1.851635        -0.464511
 H         2.002958        -2.011961         0.978895
