19
Iteration:  4117charge 0 multiplicity 1
 C         0.397109        -0.581231        -1.004263
 C         1.542551        -0.009628        -0.240937
 C         2.396764         0.997327        -0.826291
 C         3.454288         1.083344         0.287588
 C         2.691724         0.812847         1.526157
 O         1.340937         0.647597         1.060166
 C         3.508043        -0.305067         0.812684
 O         4.787005        -0.815752         1.313774
 C         2.520049        -1.162959         0.171323
 H         0.005763         0.195936        -1.709776
 H         0.530099        -1.614122        -1.389469
 H        -0.384244        -0.657034        -0.304690
 H         2.938554         0.477507        -1.762039
 H         1.843539         1.783907        -1.251181
 H         4.336499         1.789551         0.179037
 H         2.812338         1.227056         2.570613
 H         4.565499        -1.633127         1.882285
 H         2.689436        -1.690592        -0.781940
 H         2.029730        -1.955405         0.797857
