19
Iteration:  2758charge 0 multiplicity 1
 C         0.342033        -0.618914        -0.834021
 C         1.587365        -0.010677        -0.178639
 C         2.574714         0.928027        -1.003741
 C         3.561388         1.090871         0.135821
 C         2.657378         0.915393         1.354265
 O         1.345560         0.686815         1.041663
 C         3.530235        -0.244375         0.817273
 O         4.604726        -0.852420         1.431669
 C         2.466779        -1.190474         0.244289
 H        -0.303563        -0.095308        -1.664330
 H         0.626868        -1.662839        -1.297520
 H        -0.361716        -0.923068        -0.080647
 H         2.982085         0.257851        -1.862616
 H         2.195553         1.814098        -1.380114
 H         4.654053         1.607855         0.081551
 H         2.843957         1.397176         2.293371
 H         4.276769        -1.109519         2.371812
 H         2.873208        -1.912124        -0.457834
 H         1.905176        -1.910586         0.925463
