19
Iteration:  2550charge 0 multiplicity 1
 C         0.136780        -0.310965        -0.950448
 C         1.538820        -0.102951        -0.182667
 C         2.539227         0.831772        -1.023251
 C         3.565907         1.002981         0.063903
 C         2.656213         0.757322         1.382314
 O         1.296989         0.526148         1.001048
 C         3.603091        -0.258814         0.831120
 O         4.755161        -0.714874         1.571340
 C         2.583522        -1.204524         0.277841
 H        -0.329927         0.581807        -1.228063
 H         0.207476        -0.989468        -1.860267
 H        -0.515960        -0.852639        -0.265237
 H         2.892443         0.269744        -2.034388
 H         2.095878         1.786000        -1.234361
 H         4.345202         1.694809         0.251057
 H         2.607692         1.214169         2.363473
 H         4.999465        -0.177977         2.283965
 H         2.810946        -1.973762        -0.491819
 H         2.110157        -1.874771         1.198185
