19
Iteration:  3740charge 0 multiplicity 1
 C         0.205025        -0.458948        -0.769782
 C         1.586808        -0.114422        -0.297946
 C         2.506600         0.938441        -1.006588
 C         3.548767         1.044324         0.175945
 C         2.690175         0.834402         1.405059
 O         1.295044         0.676603         0.956097
 C         3.562692        -0.328225         0.826028
 O         4.697393        -0.790802         1.577094
 C         2.609612        -1.257848         0.085523
 H        -0.416491         0.313557        -0.358690
 H         0.004905        -0.617999        -1.804406
 H        -0.281956        -1.355322        -0.351205
 H         2.976458         0.712900        -1.933797
 H         1.974722         1.959250        -1.055611
 H         4.285872         1.728762         0.089437
 H         2.914051         1.402943         2.376179
 H         4.204579        -1.106278         2.320114
 H         3.080779        -1.804621        -0.743550
 H         2.402126        -2.057921         0.834785
