19
Iteration:   797charge 0 multiplicity 1
 C         0.102737        -0.309277        -0.836647
 C         1.471907        -0.181196        -0.142648
 C         2.436746         0.594486        -1.046381
 C         3.462663         0.872453        -0.029457
 C         2.849041         0.930782         1.320074
 O         1.437721         0.771650         1.014469
 C         3.567195        -0.300101         0.891099
 O         4.829347        -0.698907         1.517324
 C         2.465950        -1.217704         0.333674
 H        -0.842515        -0.177381        -0.164724
 H         0.078474         0.565217        -1.532059
 H        -0.193052        -1.163761        -1.503168
 H         2.856652         0.070690        -1.980876
 H         2.005623         1.487880        -1.392678
 H         4.328134         1.367471        -0.133861
 H         2.967859         1.505886         2.248779
 H         4.637134        -0.436738         2.450997
 H         2.925590        -1.822758        -0.515679
 H         2.233426        -1.991759         1.066987
