19
Iteration:  3330charge 0 multiplicity 1
 C         0.258047        -0.498970        -0.813427
 C         1.578149        -0.083790        -0.276138
 C         2.512493         0.883530        -1.056488
 C         3.584141         1.028108         0.150455
 C         2.691423         0.838972         1.354467
 O         1.324449         0.648768         1.084458
 C         3.507574        -0.266120         0.843976
 O         4.638915        -0.751159         1.641468
 C         2.573974        -1.166942         0.089126
 H        -0.532810         0.064104        -0.405787
 H        -0.029269        -0.372717        -1.948556
 H         0.035368        -1.534489        -0.488578
 H         2.975914         0.322391        -1.905521
 H         2.226888         1.837203        -1.361119
 H         4.542763         1.688866        -0.010047
 H         2.835838         1.342871         2.320288
 H         4.584120        -1.693146         1.563723
 H         2.915658        -1.736442        -0.815446
 H         2.098254        -1.849121         0.869548
