19
Iteration:   779charge 0 multiplicity 1
 C         0.172447        -0.359835        -0.705518
 C         1.511305        -0.040629        -0.126488
 C         2.518788         0.674851        -1.052698
 C         3.643609         0.896181        -0.055849
 C         2.746301         0.877548         1.288059
 O         1.343530         0.804955         1.024443
 C         3.564644        -0.344128         0.804886
 O         4.710466        -0.669168         1.509238
 C         2.464228        -1.306966         0.312028
 H        -0.590593        -0.571688         0.031942
 H        -0.192546         0.341867        -1.395250
 H         0.251134        -1.365270        -1.250258
 H         2.718774         0.020195        -1.842082
 H         1.978348         1.550445        -1.651704
 H         4.502045         1.615330        -0.248392
 H         3.079309         1.514789         2.116877
 H         4.615425        -0.906229         2.465349
 H         2.789493        -1.983527        -0.541927
 H         2.069362        -1.902197         1.130629
