19
Iteration:  1046charge 0 multiplicity 1
 C         0.141345        -0.501017        -0.628424
 C         1.512692        -0.097170        -0.264282
 C         2.548440         0.769568        -1.076049
 C         3.562276         0.961412        -0.014727
 C         2.794789         0.941973         1.242961
 O         1.348888         0.814649         0.973199
 C         3.614206        -0.300608         0.821389
 O         4.716010        -0.726037         1.653151
 C         2.458978        -1.294288         0.284283
 H        -0.378443        -0.878279         0.328594
 H        -0.520558         0.260358        -1.065328
 H         0.056251        -1.280213        -1.322067
 H         2.828180         0.198385        -2.052475
 H         2.169637         1.707955        -1.324287
 H         4.453109         1.736303        -0.058100
 H         3.087307         1.594993         2.029506
 H         4.882124        -1.642935         1.488282
 H         2.439320        -1.852792        -0.636744
 H         1.894885        -1.768446         1.139714
