19
Iteration:  1061charge 0 multiplicity 1
 C         0.077530        -0.428672        -0.668420
 C         1.536084        -0.095982        -0.199433
 C         2.516919         0.742267        -1.118243
 C         3.599696         0.966947        -0.045765
 C         2.759706         0.912407         1.253046
 O         1.433331         0.671484         0.962086
 C         3.583000        -0.320069         0.837701
 O         4.678656        -0.686340         1.641608
 C         2.425920        -1.179622         0.342625
 H        -0.454818        -0.923496         0.103258
 H        -0.428281         0.513498        -0.800035
 H         0.139136        -0.973331        -1.704802
 H         3.040967         0.179096        -1.987485
 H         2.000822         1.667066        -1.520163
 H         4.420068         1.535816        -0.208744
 H         2.972785         1.484920         2.185864
 H         5.134442        -1.487856         1.224007
 H         2.930037        -2.104443        -0.109624
 H         2.004417        -1.572597         1.271165
