19
Iteration:  1244charge 0 multiplicity 1
 C         0.126147        -0.344817        -0.764184
 C         1.510520        -0.108411        -0.172438
 C         2.459199         0.717737        -1.076951
 C         3.507784         0.935663        -0.013580
 C         2.789716         1.005063         1.274364
 O         1.382102         0.694608         1.013558
 C         3.528545        -0.344130         0.965300
 O         4.778427        -0.712477         1.571784
 C         2.509052        -1.255407         0.325259
 H        -0.700294        -0.651710        -0.116998
 H        -0.208628         0.456947        -1.369095
 H         0.174572        -1.326049        -1.408316
 H         2.842241        -0.037939        -1.886297
 H         2.172183         1.595107        -1.547194
 H         4.407624         1.594230        -0.068808
 H         3.062432         1.726225         2.021917
 H         5.350117        -1.263673         0.966631
 H         2.646911        -1.925153        -0.556841
 H         2.050873        -1.901843         1.086093
