19
Iteration:  4493
 C         0.194616        -0.524245        -0.849845
 C         1.601032        -0.097636        -0.244600
 C         2.552516         0.784482        -1.028893
 C         3.539159         1.070823         0.105697
 C         2.674564         0.918690         1.404998
 O         1.398642         0.774598         1.008403
 C         3.531831        -0.297912         0.915169
 O         4.692349        -0.844943         1.463402
 C         2.486721        -1.211038         0.241939
 H         0.203960        -0.138006        -1.873897
 H         0.092750        -1.598921        -0.905584
 H        -0.518215        -0.039927        -0.233688
 H         3.052967         0.281809        -1.823978
 H         2.051939         1.610121        -1.482881
 H         4.325748         1.853876         0.150985
 H         2.719498         1.559274         2.343619
 H         4.420627        -1.081348         2.331617
 H         2.800561        -1.910644        -0.587575
 H         1.970839        -1.883564         0.924898
