19
Iteration:  1406charge 0 multiplicity 1
 C         0.196248        -0.509640        -0.749796
 C         1.541472        -0.053515        -0.168170
 C         2.457892         0.721995        -1.056774
 C         3.525574         0.902993         0.027416
 C         2.806414         0.970001         1.357927
 O         1.411426         0.842887         0.968990
 C         3.513818        -0.302742         0.890720
 O         4.752021        -0.751640         1.399836
 C         2.430360        -1.225498         0.368271
 H        -0.632472        -0.605263        -0.007140
 H        -0.060898         0.184378        -1.484517
 H         0.324667        -1.592286        -1.160212
 H         2.802328         0.149077        -1.930266
 H         1.953591         1.712572        -1.348321
 H         4.465308         1.510177        -0.220185
 H         2.862927         1.610684         2.242856
 H         4.668724        -1.435659         2.138140
 H         2.912056        -1.910670        -0.371247
 H         1.969119        -1.872219         1.127998
