19
Iteration:  3488charge 0 multiplicity 1
 C         0.174683        -0.398364        -0.863065
 C         1.576796        -0.055482        -0.226439
 C         2.543534         0.840560        -1.015493
 C         3.526340         1.044295         0.060832
 C         2.661046         0.750121         1.370888
 O         1.365235         0.665424         1.073106
 C         3.582368        -0.380288         0.813133
 O         4.673131        -0.633425         1.636556
 C         2.531760        -1.287218         0.134512
 H        -0.327604         0.622479        -0.971136
 H         0.453185        -0.801645        -1.832378
 H        -0.286617        -1.146495        -0.159683
 H         3.019447         0.487239        -1.869176
 H         1.918886         1.735552        -1.311734
 H         4.465131         1.710276         0.028555
 H         2.995484         1.346239         2.269625
 H         4.507363        -1.527676         2.043489
 H         2.829369        -1.828576        -0.738794
 H         2.189657        -2.025664         0.827671
