19
Iteration:  1322charge 0 multiplicity 1
 C         0.168705        -0.490696        -0.655734
 C         1.537247        -0.074805        -0.195242
 C         2.425123         0.762333        -1.077588
 C         3.586115         0.906271        -0.049753
 C         2.824991         0.990901         1.244906
 O         1.423678         0.759434         0.983057
 C         3.549994        -0.278964         0.881891
 O         4.583578        -0.848006         1.540909
 C         2.531598        -1.189898         0.326233
 H        -0.123294        -1.432228        -0.275349
 H        -0.610119         0.249891        -0.361917
 H         0.168133        -0.454039        -1.811575
 H         2.638724         0.203891        -2.097368
 H         1.959785         1.638372        -1.340739
 H         4.633816         1.342899        -0.191701
 H         2.962987         1.760669         2.017700
 H         5.039111        -0.473938         2.275721
 H         3.001556        -1.827655        -0.516256
 H         2.262760        -1.851120         1.148215
