19
Iteration:  4483
 C         0.169886        -0.473061        -0.764018
 C         1.529180        -0.127144        -0.262221
 C         2.608931         0.807079        -1.079921
 C         3.593294         1.004740         0.133069
 C         2.699117         0.864419         1.381298
 O         1.374013         0.723670         0.931225
 C         3.480913        -0.289124         0.947008
 O         4.712852        -0.754032         1.510879
 C         2.480172        -1.224929         0.227920
 H        -0.049151        -0.122892        -1.781166
 H        -0.082924        -1.541695        -0.734094
 H        -0.608781        -0.105549        -0.164727
 H         3.187800         0.343812        -1.794677
 H         2.265355         1.790678        -1.498348
 H         4.266381         1.907385         0.191267
 H         2.983537         1.438155         2.319245
 H         4.505111        -1.268635         2.285743
 H         2.872821        -1.413569        -0.803233
 H         2.071791        -2.042303         0.834177
