19
Iteration:  1544charge 0 multiplicity 1
 C         0.044312        -0.505473        -0.763281
 C         1.540247        -0.146822        -0.171859
 C         2.495196         0.712064        -1.031144
 C         3.515904         0.857094         0.012264
 C         2.778364         1.076824         1.325211
 O         1.379080         0.836909         0.883703
 C         3.596539        -0.244077         1.023103
 O         4.854453        -0.832293         1.441987
 C         2.446371        -1.161614         0.395136
 H        -0.253796        -1.593544        -0.631913
 H        -0.623906         0.348070        -0.512130
 H         0.173454        -0.434797        -1.795643
 H         2.916787         0.314811        -2.002649
 H         1.892432         1.686252        -1.193913
 H         4.406153         1.464313        -0.298876
 H         2.827549         1.738024         2.212847
 H         4.668154        -1.756143         1.666571
 H         2.910657        -1.822561        -0.331846
 H         1.888905        -1.824257         1.131403
