19
Iteration:  3874charge 0 multiplicity 1
 C         0.191501        -0.486232        -0.856972
 C         1.553609        -0.076367        -0.215872
 C         2.460493         0.990144        -0.951563
 C         3.522780         1.105866         0.167394
 C         2.731174         0.830338         1.409803
 O         1.302100         0.611910         1.057146
 C         3.570117        -0.334378         0.807280
 O         4.694861        -0.828914         1.535632
 C         2.657286        -1.235329         0.022954
 H        -0.259895         0.246094        -1.578690
 H         0.413271        -1.503457        -1.247936
 H        -0.464362        -0.593950         0.090489
 H         2.824107         0.397254        -1.918256
 H         1.914698         2.021888        -1.112155
 H         4.343575         1.844596         0.137290
 H         2.964580         1.235834         2.395048
 H         4.360370        -0.960248         2.454018
 H         3.083144        -1.443755        -0.975698
 H         2.164434        -2.061480         0.602929
