19
Iteration:  1005charge 0 multiplicity 1
 C         0.200021        -0.609819        -0.721710
 C         1.539948        -0.064922        -0.163712
 C         2.498493         0.777716        -1.087625
 C         3.601266         0.971012        -0.032699
 C         2.811668         1.066247         1.268795
 O         1.414654         0.772274         1.058787
 C         3.495334        -0.237967         0.851153
 O         4.645494        -0.839532         1.523196
 C         2.458536        -1.169887         0.314566
 H        -0.408098        -0.601948         0.202346
 H        -0.207541         0.047595        -1.426426
 H         0.227938        -1.728199        -0.971162
 H         2.806652         0.152346        -2.053943
 H         2.001967         1.690409        -1.385078
 H         4.486068         1.606492        -0.234025
 H         3.058957         1.766756         2.043074
 H         4.323177        -1.694597         1.818714
 H         2.997197        -1.765721        -0.513847
 H         2.028092        -1.932569         0.993646
