19
Iteration:  2020charge 0 multiplicity 1
 C         0.165314        -0.394324        -0.807884
 C         1.604936        -0.126242        -0.211624
 C         2.475536         0.876458        -1.013155
 C         3.589795         1.069574         0.019628
 C         2.740648         0.727208         1.329432
 O         1.395401         0.606967         1.071632
 C         3.588453        -0.299500         0.734989
 O         4.569921        -0.702212         1.576643
 C         2.543540        -1.277970         0.270627
 H        -0.323987        -1.495370        -0.653957
 H        -0.536284         0.299386        -0.174575
 H         0.061281        -0.062589        -1.849963
 H         2.733451         0.307373        -1.946227
 H         1.913162         1.862476        -1.146655
 H         4.507427         1.726564         0.000223
 H         3.061419         1.136289         2.255551
 H         5.277292        -0.033971         1.679763
 H         2.877345        -1.991350        -0.550303
 H         2.021684        -1.891072         1.079254
