19
Iteration:   223charge 0 multiplicity 1
 C         0.104814        -0.332139        -0.766300
 C         1.508422        -0.190658        -0.146265
 C         2.489190         0.625986        -1.080222
 C         3.570403         0.875291        -0.060918
 C         2.784339         1.018238         1.235878
 O         1.433683         0.767779         0.967399
 C         3.532961        -0.346803         0.875022
 O         4.771117        -0.643846         1.569304
 C         2.444977        -1.312668         0.380081
 H        -0.495757        -1.025259        -0.166295
 H        -0.375277         0.607758        -0.790178
 H         0.169617        -0.559488        -1.822032
 H         2.808430         0.248208        -2.019502
 H         2.054525         1.634305        -1.340357
 H         4.570679         1.350600        -0.104198
 H         3.001867         1.610613         2.152209
 H         4.500428        -0.804399         2.471028
 H         2.739574        -1.946447        -0.483232
 H         2.071875        -1.901727         1.193212
