19
Iteration:  1854
 C         0.208530        -0.464326        -0.760862
 C         1.554072        -0.159213        -0.211672
 C         2.487700         0.867097        -0.971992
 C         3.554951         0.983461         0.104661
 C         2.709839         0.907816         1.352893
 O         1.335069         0.713133         0.957892
 C         3.542061        -0.334518         0.861661
 O         4.809215        -0.770795         1.393736
 C         2.489696        -1.188495         0.304421
 H        -0.472467        -0.742371         0.043776
 H        -0.406881         0.353769        -1.257868
 H         0.274112        -1.283605        -1.558323
 H         2.844013         0.428821        -1.835636
 H         1.975976         1.897425        -1.123159
 H         4.343492         1.605012        -0.089692
 H         2.783116         1.653139         2.137951
 H         4.605482        -1.354953         2.130276
 H         2.709532        -2.001937        -0.439197
 H         2.018636        -1.730468         1.138557
