19
Iteration:  4320
 C         0.205505        -0.402830        -0.924677
 C         1.508862        -0.140388        -0.247965
 C         2.442857         0.892918        -1.005776
 C         3.517848         1.013841         0.048684
 C         2.718028         0.832777         1.401846
 O         1.429385         0.598551         1.122924
 C         3.576593        -0.311020         0.782604
 O         4.629924        -0.683318         1.722004
 C         2.594047        -1.258781         0.093849
 H        -0.096612        -1.476758        -0.840547
 H        -0.403214         0.297074        -0.372524
 H         0.236557        -0.051608        -1.942305
 H         2.771058         0.504607        -1.925980
 H         1.761770         1.900435        -1.126991
 H         4.286939         1.782281         0.190829
 H         2.983052         1.239563         2.344193
 H         5.027731        -1.542568         1.301657
 H         3.054114        -1.639790        -0.823027
 H         2.201168        -1.933274         0.833080
