19
Iteration:   620charge 0 multiplicity 1
 C         0.162011        -0.516011        -0.658957
 C         1.525127        -0.065556        -0.189476
 C         2.558279         0.650269        -1.108964
 C         3.612675         0.954367        -0.089790
 C         2.759879         1.012091         1.224675
 O         1.401448         0.763217         1.044047
 C         3.589656        -0.250952         0.904645
 O         4.643571        -0.813261         1.532671
 C         2.440650        -1.114811         0.295815
 H        -0.358925        -0.629145         0.283279
 H        -0.400851         0.211910        -1.401755
 H         0.191857        -1.463303        -1.179223
 H         3.065868        -0.050773        -1.939421
 H         2.168930         1.558456        -1.446605
 H         4.395807         1.752227        -0.145872
 H         3.074438         1.582630         2.081098
 H         4.216504        -1.340415         2.230927
 H         2.798403        -1.856550        -0.375196
 H         1.890010        -1.747214         1.055219
