19
Iteration:  3897
 C         0.179316        -0.360438        -0.826847
 C         1.573543        -0.134263        -0.259012
 C         2.437184         0.959667        -1.000922
 C         3.517337         1.042248         0.085068
 C         2.721619         0.789384         1.353720
 O         1.391143         0.426201         1.073172
 C         3.545803        -0.252971         0.867431
 O         4.690234        -0.737519         1.609308
 C         2.625247        -1.159079         0.047922
 H        -0.272413         0.577033        -1.283578
 H         0.194765        -1.263894        -1.519322
 H        -0.442216        -0.585082         0.062890
 H         2.905038         0.712371        -2.075199
 H         1.936704         1.962170        -0.923159
 H         4.357502         1.614793         0.173725
 H         2.883552         1.375248         2.315063
 H         4.324589        -1.399121         2.192027
 H         3.045447        -1.580331        -0.879156
 H         2.106625        -1.811814         0.738139
