19
Iteration:  3989charge 0 multiplicity 1
 C         0.312519        -0.477473        -0.954934
 C         1.559624        -0.146229        -0.229121
 C         2.474475         0.968105        -0.877864
 C         3.517944         1.121138         0.114283
 C         2.673324         0.780902         1.454299
 O         1.349078         0.667543         1.016184
 C         3.587027        -0.249382         0.868835
 O         4.703442        -0.858294         1.415370
 C         2.529741        -1.193281         0.222479
 H        -0.636872        -0.175083        -0.484723
 H         0.151578        -0.284062        -2.020997
 H         0.150371        -1.572732        -0.776073
 H         2.710079         0.596627        -1.912695
 H         1.811190         1.804532        -0.923243
 H         4.308702         1.984771        -0.007927
 H         2.847050         1.241786         2.409290
 H         4.456744        -1.410769         2.164319
 H         2.970393        -1.734823        -0.602318
 H         2.077752        -1.800246         0.999174
