19
Iteration:  1065
 C         0.107475        -0.413898        -0.695383
 C         1.537671        -0.105271        -0.216446
 C         2.511736         0.734823        -1.144580
 C         3.573583         0.960015        -0.047793
 C         2.779247         0.912268         1.274986
 O         1.453270         0.650296         0.960883
 C         3.575742        -0.286494         0.873965
 O         4.647287        -0.686176         1.617575
 C         2.442722        -1.198859         0.397541
 H        -0.514616        -0.962810         0.062132
 H        -0.480275         0.591925        -0.784767
 H         0.068523        -0.805526        -1.682472
 H         2.786793         0.123633        -1.928258
 H         1.988015         1.659534        -1.567268
 H         4.581595         1.522399        -0.248301
 H         3.028609         1.383030         2.216512
 H         5.190472        -1.322937         1.185306
 H         2.920333        -1.965206        -0.194500
 H         2.022152        -1.634896         1.309733
