19
Iteration:  1676
 C         0.255613        -0.562877        -0.773760
 C         1.494486        -0.015773        -0.170454
 C         2.479767         0.747600        -1.033496
 C         3.549344         0.995391         0.047784
 C         2.788368         0.929456         1.325523
 O         1.331517         0.783082         1.021347
 C         3.566067        -0.275409         0.927333
 O         4.748334        -0.871903         1.478099
 C         2.384091        -1.144351         0.306424
 H        -0.556865        -0.470340        -0.009513
 H        -0.085245         0.074583        -1.558003
 H         0.338459        -1.604740        -1.199489
 H         2.912579         0.067922        -1.752199
 H         2.273540         1.749127        -1.560213
 H         4.338594         1.652165        -0.130701
 H         2.962266         1.467715         2.241493
 H         5.349894        -0.910824         0.741664
 H         2.612946        -1.778834        -0.544421
 H         1.898489        -1.668720         1.164597
