19
Iteration:   322
 C         0.187491        -0.675864        -0.724354
 C         1.536528        -0.048504        -0.166161
 C         2.560295         0.714661        -1.027491
 C         3.624442         0.945422        -0.063805
 C         2.838985         1.096249         1.230321
 O         1.399358         0.916779         1.057138
 C         3.567050        -0.283809         0.863594
 O         4.604847        -0.864175         1.490635
 C         2.378549        -1.163005         0.336742
 H        -0.366047        -1.081043         0.206302
 H        -0.476224         0.001644        -1.103027
 H         0.367947        -1.596397        -1.418042
 H         2.919571         0.066853        -1.849450
 H         2.123484         1.610336        -1.599168
 H         4.446639         1.504551        -0.251574
 H         3.280883         1.768965         1.978615
 H         4.196772        -1.364750         2.236799
 H         2.721601        -1.777554        -0.529856
 H         1.938301        -1.740246         1.106476
