19
Iteration:  4114
 C         0.423499        -0.583751        -1.018732
 C         1.530242        -0.022397        -0.223543
 C         2.415817         0.979751        -0.824943
 C         3.443681         1.095583         0.275416
 C         2.707656         0.840441         1.520753
 O         1.331491         0.648894         1.073732
 C         3.501626        -0.333400         0.831403
 O         4.784627        -0.819693         1.305532
 C         2.512514        -1.150039         0.151989
 H        -0.021051         0.184215        -1.745765
 H         0.584242        -1.642884        -1.417114
 H        -0.488604        -0.647651        -0.326142
 H         2.814077         0.450156        -1.678183
 H         1.838488         1.873949        -1.240384
 H         4.315923         1.888533         0.268483
 H         2.943061         1.161437         2.512457
 H         4.585772        -1.575853         1.898007
 H         2.701930        -1.705439        -0.823116
 H         1.989025        -1.920177         0.863787
