19
Iteration:  2855charge 0 multiplicity 1
 C         0.187123        -0.410336        -0.862411
 C         1.576650        -0.103409        -0.277643
 C         2.573013         0.824637        -1.028824
 C         3.543355         0.991611         0.088532
 C         2.653740         0.873257         1.319636
 O         1.325650         0.662299         0.967743
 C         3.522698        -0.338505         0.910517
 O         4.759672        -0.704561         1.568901
 C         2.529735        -1.247081         0.304536
 H        -0.597837         0.250606        -0.348605
 H         0.184956        -0.187378        -2.018181
 H        -0.225308        -1.388368        -0.616283
 H         2.999785         0.371858        -2.011754
 H         2.036947         1.816720        -1.270318
 H         4.453320         1.718259         0.163023
 H         2.868208         1.471226         2.172512
 H         4.482386        -1.361297         2.298088
 H         2.869836        -1.911458        -0.440541
 H         2.068347        -1.941848         0.960293
