19
Iteration:  3341
 C         0.197564        -0.422747        -0.811079
 C         1.549695        -0.081077        -0.245516
 C         2.527443         0.885333        -1.012682
 C         3.564761         1.091844         0.087659
 C         2.699969         0.815002         1.458873
 O         1.386759         0.615850         0.979107
 C         3.593943        -0.299306         0.790518
 O         4.559743        -0.698443         1.623419
 C         2.555249        -1.248655         0.164227
 H        -0.483915         0.226237        -0.364852
 H         0.467935        -0.494633        -1.973912
 H         0.019660        -1.492242        -0.569308
 H         2.923625         0.304991        -1.898154
 H         2.001113         1.707974        -1.403295
 H         4.541345         1.798271         0.047462
 H         2.789357         1.084321         2.526514
 H         4.732925        -1.619123         1.585296
 H         2.967781        -1.780148        -0.750093
 H         2.165249        -2.047174         0.909026
