19
Iteration:  2839charge 0 multiplicity 1
 C         0.280721        -0.279271        -0.811287
 C         1.609384        -0.178756        -0.255683
 C         2.501388         0.772395        -1.090807
 C         3.500371         1.018730         0.124505
 C         2.723719         0.817167         1.438772
 O         1.410852         0.628052         0.925454
 C         3.511955        -0.303112         0.871083
 O         4.625453        -0.581834         1.562112
 C         2.509246        -1.346113         0.224288
 H        -0.427104         0.366182        -0.342184
 H         0.177196        -0.104119        -1.808417
 H        -0.161258        -1.309899        -0.642820
 H         3.033307         0.239591        -1.790684
 H         1.997835         1.648098        -1.535183
 H         4.409186         1.469956        -0.118687
 H         2.828589         1.244970         2.478242
 H         4.465212        -1.266935         2.303212
 H         3.060143        -2.007795        -0.566214
 H         1.934221        -1.784079         1.135561
