19
Iteration:  4827
 C         0.280419        -0.354480        -0.966222
 C         1.551502        -0.135009        -0.219829
 C         2.449028         0.855103        -0.945756
 C         3.577944         0.977771         0.080122
 C         2.714744         0.826760         1.451827
 O         1.361487         0.618848         1.029973
 C         3.540735        -0.322911         0.957571
 O         4.817253        -0.706469         1.395132
 C         2.373732        -1.229071         0.277251
 H        -0.591803        -0.481192        -0.241823
 H        -0.068154         0.458995        -1.633471
 H         0.294833        -1.339166        -1.459890
 H         2.702909         0.523402        -1.942243
 H         1.891310         1.896294        -1.207360
 H         4.442723         1.576908        -0.036440
 H         2.803016         1.420800         2.341878
 H         4.604422        -1.044751         2.295909
 H         2.761784        -1.773682        -0.612528
 H         1.987038        -2.012784         1.002394
