19
Iteration:  2878charge 0 multiplicity 1
 C         0.202757        -0.610833        -0.931514
 C         1.514992        -0.023763        -0.240445
 C         2.529025         0.834739        -0.976790
 C         3.581223         0.961467         0.074047
 C         2.742972         0.992352         1.409659
 O         1.304286         0.699902         1.002616
 C         3.560436        -0.225724         0.976246
 O         4.734620        -0.883019         1.491742
 C         2.489901        -1.123004         0.242866
 H        -0.772693         0.068079        -0.781287
 H         0.557484        -0.637903        -2.016732
 H        -0.064309        -1.576497        -0.544071
 H         2.910743         0.269257        -1.962728
 H         2.137766         1.824688        -1.254300
 H         4.503922         1.494847         0.102153
 H         2.823217         1.687007         2.257648
 H         4.425992        -1.058126         2.350588
 H         2.957815        -1.662025        -0.509881
 H         1.980521        -1.897827         0.729706
