19
Iteration:  1068
 C         0.125646        -0.387402        -0.709199
 C         1.537183        -0.118592        -0.234167
 C         2.498968         0.736829        -1.150591
 C         3.561955         0.958082        -0.054544
 C         2.805802         0.913906         1.291012
 O         1.457954         0.647845         0.968859
 C         3.560892        -0.257871         0.891531
 O         4.625241        -0.684061         1.607990
 C         2.466962        -1.221253         0.436250
 H        -0.507817        -1.016420        -0.003207
 H        -0.429921         0.556287        -0.763350
 H         0.017264        -0.749706        -1.705891
 H         2.674229         0.001926        -2.011582
 H         2.035479         1.585136        -1.543527
 H         4.566606         1.469390        -0.232464
 H         3.041526         1.352659         2.229936
 H         5.266831        -1.253551         1.090266
 H         2.865943        -1.900378        -0.329097
 H         1.988727        -1.702468         1.328883
