19
Iteration:  4724charge 0 multiplicity 1
 C         0.211871        -0.358480        -0.845572
 C         1.549053        -0.052556        -0.211660
 C         2.497103         0.946154        -1.026743
 C         3.525957         0.992095         0.060715
 C         2.744162         0.841329         1.352622
 O         1.425818         0.535113         1.105198
 C         3.542892        -0.355286         0.794612
 O         4.672978        -0.740808         1.624986
 C         2.507539        -1.294835         0.114607
 H        -0.270519        -1.098358        -0.215584
 H        -0.499972         0.499602        -0.904129
 H         0.225056        -0.730342        -1.885766
 H         2.853425         0.445129        -1.979645
 H         2.001422         1.909866        -1.372986
 H         4.404507         1.565156         0.022212
 H         2.961116         1.516335         2.218952
 H         4.366588        -0.406647         2.471906
 H         2.878618        -1.797738        -0.798426
 H         2.098724        -1.998653         0.830580
