19
Iteration:  4304charge 0 multiplicity 1
 C         0.196102        -0.355785        -0.876460
 C         1.554856        -0.112837        -0.187902
 C         2.421431         0.935372        -0.913766
 C         3.535185         1.100561         0.063879
 C         2.753875         0.755726         1.328981
 O         1.310715         0.540078         1.003875
 C         3.612566        -0.370274         0.841033
 O         4.642613        -0.664846         1.643696
 C         2.630875        -1.228671         0.156196
 H        -0.180496        -1.313888        -0.520310
 H        -0.557050         0.487163        -0.823160
 H         0.317634        -0.398589        -1.996308
 H         2.799553         0.637559        -1.967147
 H         1.947142         1.817128        -1.021907
 H         4.514881         1.722209        -0.143240
 H         2.935655         1.210374         2.330015
 H         4.741296        -1.652371         1.542374
 H         2.977656        -1.909021        -0.650376
 H         2.326615        -2.048375         0.882514
