19
Iteration:  2432
 C         0.171375        -0.392440        -0.882644
 C         1.534631        -0.139535        -0.172998
 C         2.497254         0.837378        -1.001192
 C         3.545993         0.950492         0.043647
 C         2.661771         0.955423         1.301788
 O         1.301805         0.584440         1.046129
 C         3.581327        -0.312126         0.916381
 O         4.693650        -0.761014         1.678360
 C         2.581691        -1.225411         0.140090
 H        -0.244859         0.682709        -0.772661
 H         0.470065        -0.581673        -1.962526
 H        -0.396605        -1.232799        -0.494111
 H         2.929905         0.402765        -1.960187
 H         1.914499         1.649483        -1.251687
 H         4.414532         1.731087         0.123149
 H         2.869442         1.552740         2.202075
 H         5.558028        -0.393970         1.330781
 H         2.999620        -1.813448        -0.658648
 H         2.198733        -2.022870         0.652394
