19
Iteration:  1748
 C         0.047117        -0.448669        -0.707536
 C         1.493784        -0.068247        -0.143246
 C         2.605551         0.818666        -1.105387
 C         3.559124         0.936832        -0.027337
 C         2.775726         0.882766         1.314222
 O         1.358337         0.680412         1.051151
 C         3.535038        -0.359018         0.845377
 O         4.750287        -0.716300         1.582295
 C         2.505573        -1.224067         0.177361
 H        -0.505665        -1.230281        -0.064316
 H        -0.539787         0.542480        -0.678038
 H         0.098881        -0.776014        -1.692720
 H         2.914302        -0.014190        -1.895446
 H         2.308943         1.684978        -1.664956
 H         4.448505         1.435877        -0.051423
 H         3.047206         1.492927         2.167098
 H         4.803582        -0.219207         2.414516
 H         2.980819        -1.582250        -0.742892
 H         1.981403        -1.978598         0.762027
