19
Iteration:  4288
 C         0.240511        -0.419458        -0.865433
 C         1.600704        -0.102411        -0.295605
 C         2.475185         0.959294        -1.010444
 C         3.508716         1.058310         0.149953
 C         2.669754         0.831726         1.394445
 O         1.361937         0.517939         1.041362
 C         3.530169        -0.262263         0.860081
 O         4.750434        -0.733744         1.588442
 C         2.529232        -1.250260         0.158174
 H        -0.449855        -0.980933        -0.169082
 H        -0.275040         0.563501        -0.891272
 H         0.291661        -0.941567        -1.822157
 H         2.813258         0.629773        -1.959898
 H         1.822915         1.931946        -1.164773
 H         4.327704         1.742542         0.170729
 H         2.802713         1.307273         2.350079
 H         4.851065        -1.678500         1.571001
 H         2.979808        -1.744967        -0.718016
 H         1.928905        -1.914337         0.795607
