19
Iteration:  3856charge 0 multiplicity 1
 C         0.274356        -0.600852        -0.839852
 C         1.559258        -0.048624        -0.299608
 C         2.511204         0.974852        -0.939669
 C         3.512292         1.075503         0.211633
 C         2.640176         0.763058         1.475381
 O         1.369864         0.669639         1.053327
 C         3.573270        -0.305340         0.839670
 O         4.670628        -0.847170         1.399608
 C         2.515413        -1.114384         0.107555
 H         0.024480         0.278237        -1.445667
 H         0.510085        -1.564618        -1.313309
 H        -0.512317        -0.669100        -0.187677
 H         2.943839         0.605867        -1.850216
 H         1.903603         1.772056        -1.105891
 H         4.336576         1.684131         0.112406
 H         2.761302         1.288940         2.489615
 H         4.700486        -0.717548         2.358645
 H         2.951093        -1.609946        -0.768608
 H         2.237212        -1.918066         0.726903
