19
Iteration:  4611
 C         0.180319        -0.389072        -0.792014
 C         1.571532        -0.091430        -0.229722
 C         2.483931         0.821842        -1.018562
 C         3.542941         1.010270         0.078399
 C         2.725496         0.834787         1.353756
 O         1.365195         0.669928         0.969113
 C         3.596603        -0.289301         0.859392
 O         4.644153        -0.774617         1.624301
 C         2.586229        -1.197618         0.190111
 H         0.292474        -1.241547        -1.502964
 H        -0.451993        -0.809683        -0.004703
 H        -0.332403         0.461948        -1.252659
 H         2.859108         0.490538        -2.083338
 H         1.856816         1.620439        -1.321717
 H         4.390353         1.806464         0.086919
 H         2.871509         1.614725         2.159788
 H         4.448597        -1.741730         1.772111
 H         3.005460        -1.759785        -0.618106
 H         2.206307        -1.914589         0.906450
