19
Iteration:  3391charge 0 multiplicity 1
 C         0.245243        -0.407770        -0.953381
 C         1.488772        -0.101747        -0.209091
 C         2.521827         0.853957        -0.985125
 C         3.527807         0.999428         0.112978
 C         2.692908         0.831693         1.356027
 O         1.344298         0.599609         1.033524
 C         3.507417        -0.344449         0.980806
 O         4.687205        -0.804298         1.534853
 C         2.537781        -1.149421         0.227031
 H        -0.095087         0.602198        -1.374769
 H         0.593499        -1.096471        -1.614764
 H        -0.491708        -0.837481        -0.229685
 H         2.870405         0.415188        -1.956942
 H         2.164536         1.903503        -1.259940
 H         4.376979         1.634667         0.095498
 H         2.896565         1.433559         2.262637
 H         5.333435        -0.115014         1.260185
 H         2.960177        -1.689278        -0.585706
 H         2.155436        -1.924805         0.895441
