19
Iteration:   383charge 0 multiplicity 1
 C         0.007439        -0.290139        -0.757783
 C         1.482836        -0.102942        -0.142678
 C         2.577953         0.662878        -1.088457
 C         3.644463         0.784973        -0.046924
 C         2.822613         0.936768         1.302063
 O         1.442616         0.675996         0.971241
 C         3.486671        -0.361210         0.947085
 O         4.814014        -0.493066         1.514667
 C         2.342638        -1.328465         0.335454
 H        -0.799870        -0.113415        -0.074057
 H        -0.105095         0.272703        -1.788465
 H        -0.096365        -1.261172        -1.115212
 H         2.914543         0.016137        -1.855840
 H         2.198447         1.616550        -1.482916
 H         4.620396         1.157478        -0.198444
 H         3.013248         1.649737         2.171033
 H         4.880872        -0.707261         2.443070
 H         2.716781        -1.908187        -0.509292
 H         1.720273        -2.023266         0.978617
