19
Iteration:  3782charge 0 multiplicity 1
 C         0.214216        -0.366330        -0.927184
 C         1.556376        -0.121669        -0.233030
 C         2.543341         0.838828        -0.968824
 C         3.507207         1.016437         0.096161
 C         2.677300         0.847833         1.409676
 O         1.330550         0.565913         1.117005
 C         3.588373        -0.301249         0.846337
 O         4.734997        -0.651465         1.543449
 C         2.511435        -1.262506         0.100526
 H        -0.395105         0.456562        -0.478730
 H         0.386842        -0.362199        -2.032803
 H        -0.229388        -1.303445        -0.561817
 H         2.958028         0.332492        -1.796990
 H         2.025743         1.891456        -1.242879
 H         4.326762         1.609763         0.167017
 H         2.950918         1.298160         2.432267
 H         4.479922        -1.339385         2.154144
 H         2.867183        -1.728318        -0.852715
 H         1.941439        -2.058515         0.692659
