19
Iteration:  2027charge 0 multiplicity 1
 C         0.161638        -0.418531        -0.773152
 C         1.498063        -0.162272        -0.253405
 C         2.492128         0.876203        -0.977553
 C         3.575119         1.088000         0.060379
 C         2.808715         0.768034         1.325936
 O         1.431470         0.624831         1.048246
 C         3.610406        -0.306627         0.738139
 O         4.556723        -0.685534         1.635693
 C         2.518207        -1.299927         0.201035
 H        -0.183727        -1.362524        -0.780150
 H        -0.458551         0.208635        -0.159443
 H         0.029148        -0.081746        -1.822421
 H         2.732699         0.346202        -1.832345
 H         1.750181         1.692494        -1.279269
 H         4.566037         1.634310        -0.134737
 H         2.988546         1.062752         2.371027
 H         5.428533        -0.145529         1.455823
 H         2.837375        -1.848446        -0.696281
 H         2.063194        -1.835350         1.012349
