19
Iteration:  2911charge 0 multiplicity 1
 C         0.359560        -0.551398        -0.806886
 C         1.615987        -0.080361        -0.201074
 C         2.504394         0.878956        -0.985046
 C         3.574658         1.097252         0.089528
 C         2.707503         0.863216         1.404947
 O         1.333552         0.714851         0.986623
 C         3.517626        -0.293516         0.762360
 O         4.624276        -0.824224         1.494276
 C         2.471815        -1.232413         0.266554
 H        -0.215304         0.249280        -1.443550
 H         0.560626        -1.226015        -1.707075
 H        -0.358547        -1.069443        -0.199530
 H         2.958904         0.423652        -2.003108
 H         1.941645         1.787716        -1.150899
 H         4.319730         1.788476         0.109435
 H         3.026357         1.369573         2.342504
 H         4.234169        -1.006481         2.383747
 H         2.800444        -1.827567        -0.503124
 H         1.927524        -1.676617         1.038579
