19
Iteration:  4041charge 0 multiplicity 1
 C         0.149586        -0.355338        -0.780214
 C         1.509191        -0.075389        -0.295515
 C         2.516666         0.962027        -1.001751
 C         3.513371         1.013542         0.214511
 C         2.698878         0.731562         1.429247
 O         1.328091         0.506179         1.005468
 C         3.592686        -0.305099         0.804215
 O         4.697026        -0.665163         1.563297
 C         2.680746        -1.246667         0.008441
 H        -0.525779         0.417192        -0.379137
 H        -0.048333        -0.560086        -1.840498
 H        -0.290392        -1.123900        -0.225470
 H         3.073548         0.355034        -1.854493
 H         2.101571         1.904101        -1.235772
 H         4.494366         1.654348         0.254175
 H         2.798286         1.052893         2.449174
 H         4.376232        -1.035520         2.357870
 H         3.124440        -1.673900        -0.882824
 H         2.100921        -1.901355         0.633896
