19
Iteration:  1089charge 0 multiplicity 1
 C         0.224693        -0.328745        -0.774132
 C         1.538801        -0.180501        -0.118960
 C         2.474892         0.617101        -1.066955
 C         3.518449         0.882851        -0.057116
 C         2.757083         1.000633         1.245027
 O         1.403243         0.801323         1.068314
 C         3.523964        -0.317460         0.914143
 O         4.673106        -0.704843         1.574670
 C         2.459443        -1.320926         0.305369
 H        -0.493490        -1.139698        -0.365584
 H        -0.383301         0.599859        -0.613199
 H         0.336437        -0.362301        -1.828004
 H         2.873844         0.046875        -1.942063
 H         1.894484         1.436839        -1.409475
 H         4.430628         1.547953        -0.338369
 H         3.098241         1.717699         1.952085
 H         5.496714        -0.580221         1.045785
 H         3.008757        -1.904948        -0.394073
 H         2.081158        -1.899278         1.176157
