19
Iteration:   902charge 0 multiplicity 1
 C         0.121910        -0.488071        -0.648107
 C         1.577842        -0.157054        -0.207804
 C         2.482496         0.815582        -1.160690
 C         3.558944         1.004006        -0.063084
 C         2.830874         0.979318         1.212044
 O         1.465771         0.760646         0.957243
 C         3.594430        -0.253839         0.813228
 O         4.613325        -0.799695         1.601075
 C         2.482257        -1.276511         0.468411
 H        -0.232572        -1.405190        -0.277684
 H        -0.668457         0.304638        -0.436934
 H         0.155376        -0.595168        -1.676254
 H         2.981143         0.303786        -1.979226
 H         1.904038         1.720145        -1.516932
 H         4.364124         1.616773        -0.204094
 H         3.090185         1.700214         2.025773
 H         4.281964        -1.664234         1.982832
 H         2.650759        -1.960733        -0.296557
 H         1.968890        -1.629183         1.404003
