19
Iteration:  1589
 C         0.189502        -0.479837        -0.661659
 C         1.498451        -0.107553        -0.113223
 C         2.485992         0.651827        -1.075587
 C         3.649029         1.008677        -0.036344
 C         2.791011         0.934040         1.296932
 O         1.457336         0.770992         1.022353
 C         3.550618        -0.249456         0.739602
 O         4.604913        -0.724449         1.506663
 C         2.440561        -1.210098         0.300597
 H         0.015848        -1.563846        -0.424761
 H        -0.542312         0.266844        -0.444452
 H         0.231041        -0.522640        -1.782168
 H         2.858877         0.101771        -1.920015
 H         2.062956         1.712752        -1.438433
 H         4.596914         1.373165        -0.170903
 H         3.144631         1.473796         2.178278
 H         4.220223        -1.195841         2.299350
 H         2.612205        -1.950706        -0.476219
 H         2.081920        -1.759282         1.236584
