19
Iteration:  2829charge 0 multiplicity 1
 C         0.215773        -0.290212        -0.849239
 C         1.612365        -0.170226        -0.253699
 C         2.550540         0.699086        -1.050594
 C         3.576567         1.034297         0.083541
 C         2.689379         0.793209         1.415617
 O         1.425114         0.598676         0.998019
 C         3.458897        -0.315941         0.864859
 O         4.631837        -0.547116         1.569983
 C         2.506353        -1.267353         0.204230
 H        -0.293770         0.467716        -0.334124
 H         0.232411        -0.081537        -1.886663
 H        -0.331757        -1.262695        -0.596737
 H         2.995785         0.202214        -1.825430
 H         1.994684         1.610556        -1.507119
 H         4.467514         1.652433        -0.105453
 H         2.863178         1.246927         2.424790
 H         4.429722        -1.134304         2.403404
 H         2.817665        -2.015606        -0.628744
 H         2.134822        -2.057888         0.918751
