19
Iteration:  4961charge 0 multiplicity 1
 C         0.213630        -0.316246        -0.992497
 C         1.538936        -0.118009        -0.174216
 C         2.475433         0.723733        -0.955998
 C         3.555244         0.892294         0.038793
 C         2.784000         0.973938         1.307852
 O         1.341177         0.615368         1.095103
 C         3.544381        -0.282339         0.867511
 O         4.741527        -0.682085         1.437350
 C         2.457720        -1.254945         0.386009
 H        -0.123688        -1.320493        -0.906510
 H        -0.564266         0.305486        -0.512191
 H         0.312764         0.008469        -2.043956
 H         2.795071         0.143031        -1.863296
 H         2.033461         1.633976        -1.344671
 H         4.577011         1.446090        -0.027112
 H         2.974885         1.439432         2.222297
 H         4.542493        -0.950417         2.354671
 H         2.972901        -1.994066        -0.301379
 H         1.863777        -1.821648         1.101477
