19
Iteration:  2709
 C         0.231915        -0.345954        -0.835126
 C         1.600358        -0.148117        -0.203570
 C         2.531676         0.813266        -0.970401
 C         3.571810         0.996270         0.102367
 C         2.681868         0.888935         1.328626
 O         1.307368         0.593070         0.954025
 C         3.518772        -0.306812         0.879505
 O         4.672075        -0.629938         1.539597
 C         2.572121        -1.309706         0.222544
 H         0.065384         0.557356        -1.415383
 H        -0.020059        -1.210345        -1.514086
 H        -0.652708        -0.450699        -0.058617
 H         2.978450         0.512929        -1.889717
 H         1.840435         1.790692        -1.096552
 H         4.447539         1.570601         0.033978
 H         2.873704         1.288960         2.311457
 H         4.557610        -1.369920         2.085397
 H         2.945988        -1.862626        -0.659442
 H         2.328748        -2.046927         0.944711
