19
Iteration:  4810charge 0 multiplicity 1
 C         0.187252        -0.452814        -0.922365
 C         1.564295        -0.051758        -0.228010
 C         2.574790         0.845324        -0.992588
 C         3.439983         1.096193         0.238083
 C         2.684324         0.873808         1.416075
 O         1.341134         0.707684         1.031001
 C         3.510864        -0.362997         0.882826
 O         4.781258        -0.775874         1.318903
 C         2.499774        -1.283041         0.306358
 H        -0.681179        -0.424901        -0.300795
 H         0.122647         0.319383        -1.694104
 H         0.285697        -1.426111        -1.379416
 H         3.221593         0.238644        -1.713818
 H         2.066662         1.668626        -1.291101
 H         4.334813         1.739531         0.252131
 H         2.985774         1.393289         2.382944
 H         4.882547        -1.425238         2.014054
 H         2.936588        -1.992195        -0.398454
 H         1.886984        -1.729388         1.049175
