19
Iteration:  4804charge 0 multiplicity 1
 C         0.203475        -0.456326        -0.872274
 C         1.591420        -0.062705        -0.254963
 C         2.615544         0.838847        -0.975839
 C         3.465893         1.069469         0.233137
 C         2.634139         0.884034         1.497928
 O         1.276767         0.720473         1.037105
 C         3.538363        -0.333882         0.851819
 O         4.765485        -0.794126         1.289142
 C         2.531135        -1.246631         0.288545
 H        -0.790200        -0.442683        -0.328393
 H         0.013147         0.240218        -1.711744
 H         0.325973        -1.512830        -1.284582
 H         3.187825         0.292822        -1.676952
 H         2.258406         1.809922        -1.656492
 H         4.400246         1.656849         0.069094
 H         2.929252         1.421923         2.344135
 H         4.599187        -1.521985         1.913028
 H         2.940941        -2.048581        -0.365250
 H         2.035179        -1.782016         1.183292
