19
Iteration:  1766charge 0 multiplicity 1
 C         0.073743        -0.359149        -0.663940
 C         1.536832        -0.159215        -0.282753
 C         2.484788         0.729641        -1.045393
 C         3.597679         0.908510         0.039545
 C         2.743707         0.950104         1.325063
 O         1.442304         0.703824         0.944887
 C         3.547841        -0.311073         0.942625
 O         4.647532        -0.743427         1.573552
 C         2.551860        -1.283137         0.163890
 H        -0.174480        -1.221529        -0.111307
 H        -0.543114         0.384152        -0.145118
 H         0.020445        -0.451740        -1.818619
 H         2.746147         0.419167        -2.016024
 H         1.883580         1.761449        -1.138700
 H         4.551583         1.523428        -0.108497
 H         2.918904         1.501115         2.252344
 H         5.012951         0.109731         1.871453
 H         3.038770        -1.773464        -0.739595
 H         2.208401        -2.091870         0.836992
