19
Iteration:  4112charge 0 multiplicity 1
 C         0.426823        -0.582753        -1.027474
 C         1.526580        -0.034561        -0.205349
 C         2.431135         0.972606        -0.833937
 C         3.446088         1.112026         0.263497
 C         2.712920         0.851146         1.511951
 O         1.321041         0.649072         1.087972
 C         3.508110        -0.348145         0.849004
 O         4.778997        -0.822149         1.300080
 C         2.500594        -1.151111         0.137665
 H         0.001697         0.122104        -1.761332
 H         0.619035        -1.590251        -1.428742
 H        -0.526648        -0.658310        -0.353096
 H         2.760310         0.448638        -1.651641
 H         1.865132         1.917101        -1.198003
 H         4.235221         1.867302         0.321533
 H         3.014644         1.132359         2.487530
 H         4.604360        -1.518010         1.897200
 H         2.743445        -1.690901        -0.803356
 H         1.995768        -1.844427         0.864825
