19
Iteration:  1240charge 0 multiplicity 1
 C         0.108912        -0.350876        -0.767807
 C         1.502845        -0.098084        -0.214034
 C         2.450697         0.736459        -1.040072
 C         3.499664         0.939232        -0.013952
 C         2.788281         0.999553         1.256261
 O         1.406080         0.678520         0.983773
 C         3.578716        -0.348432         0.975430
 O         4.784321        -0.698668         1.577351
 C         2.487221        -1.298732         0.330867
 H        -0.723132        -0.575449        -0.040834
 H        -0.137937         0.480338        -1.453478
 H         0.098802        -1.199894        -1.349775
 H         2.815951         0.079404        -1.746310
 H         2.047335         1.735873        -1.564152
 H         4.297986         1.582948        -0.176652
 H         3.038060         1.663042         2.123187
 H         5.292184        -1.332605         1.081733
 H         2.720333        -1.999794        -0.444415
 H         2.048569        -1.814839         1.208194
