19
Iteration:   758
 C         0.151814        -0.550138        -0.634630
 C         1.551862        -0.090721        -0.249763
 C         2.542922         0.779897        -1.150700
 C         3.563332         0.924771        -0.002215
 C         2.810189         0.984509         1.278931
 O         1.493626         0.749871         0.978515
 C         3.500803        -0.292178         0.897770
 O         4.642223        -0.745399         1.516907
 C         2.401822        -1.159204         0.362783
 H        -0.269021        -0.963471         0.255718
 H        -0.450964         0.248043        -0.977854
 H         0.197655        -1.400292        -1.375938
 H         2.911253         0.373159        -2.047678
 H         2.107806         1.852957        -1.450817
 H         4.614896         1.268671        -0.244072
 H         3.138762         1.628855         2.103896
 H         4.448071        -1.492141         2.142601
 H         2.703767        -1.842023        -0.456116
 H         1.693919        -1.657835         1.022825
