19
Iteration:  4898charge 0 multiplicity 1
 C         0.178151        -0.528912        -0.633448
 C         1.549777        -0.040936        -0.266692
 C         2.652999         0.908362        -1.088918
 C         3.627416         0.988543         0.033530
 C         2.693383         0.929003         1.399290
 O         1.331630         0.686143         0.951081
 C         3.512540        -0.240934         0.909599
 O         4.635602        -0.876024         1.475780
 C         2.534775        -1.232836         0.240468
 H        -0.045859        -1.567520        -0.473615
 H        -0.558127         0.077808        -0.138908
 H         0.033787        -0.532694        -1.743643
 H         3.002770         0.412160        -2.148326
 H         2.192886         1.807513        -1.415471
 H         4.275648         1.885182         0.359460
 H         2.802329         1.634881         2.186331
 H         4.119689        -1.244539         2.245037
 H         3.146846        -1.496406        -0.639224
 H         2.106104        -2.084124         0.737082
