19
Iteration:  2133charge 0 multiplicity 1
 C         0.201025        -0.424532        -0.900482
 C         1.525960        -0.115707        -0.198724
 C         2.484635         0.892803        -0.939447
 C         3.528543         0.911036         0.049318
 C         2.729191         0.910429         1.339605
 O         1.353718         0.611453         1.073553
 C         3.542203        -0.273454         0.977697
 O         4.728982        -0.745414         1.522588
 C         2.492646        -1.259219         0.223370
 H         0.199010        -1.534102        -1.189771
 H        -0.597961        -0.266600        -0.180357
 H         0.029725         0.272527        -1.807306
 H         2.799053         0.368657        -1.934705
 H         1.984119         1.736944        -1.206803
 H         4.387237         1.646967         0.112645
 H         3.016466         1.653553         2.062537
 H         5.490466        -0.395230         0.941007
 H         2.862181        -1.689555        -0.685596
 H         1.990419        -2.109137         0.676365
