19
Iteration:  2867
 C         0.162975        -0.520836        -0.921675
 C         1.483994        -0.111967        -0.222010
 C         2.574289         0.846344        -1.009836
 C         3.649056         0.936352         0.107400
 C         2.686037         0.934452         1.336247
 O         1.286146         0.676593         0.992595
 C         3.596900        -0.248350         0.994503
 O         4.760644        -0.804899         1.532802
 C         2.478317        -1.168347         0.228548
 H        -0.624930         0.294645        -0.563020
 H         0.107858        -0.499030        -2.091700
 H        -0.052213        -1.547140        -0.686131
 H         2.883726         0.365742        -2.070508
 H         2.175451         1.862875        -1.195281
 H         4.372449         1.752888         0.021077
 H         2.734084         1.667103         2.136199
 H         4.664908        -1.261127         2.387789
 H         2.906441        -1.631324        -0.588163
 H         2.045268        -1.723694         1.015391
