19
Iteration:  2436charge 0 multiplicity 1
 C         0.207851        -0.402959        -0.864209
 C         1.529238        -0.157081        -0.205808
 C         2.513795         0.822915        -1.016866
 C         3.587173         0.976002         0.046015
 C         2.642334         0.977958         1.331828
 O         1.300100         0.578933         1.068657
 C         3.577050        -0.304721         0.880226
 O         4.655601        -0.752500         1.667001
 C         2.586109        -1.235334         0.150165
 H        -0.313226         0.649430        -0.842970
 H         0.517720        -0.672223        -1.843343
 H        -0.367485        -1.170233        -0.330278
 H         2.878368         0.508385        -1.932132
 H         1.919523         1.807098        -1.308915
 H         4.363796         1.615738         0.188827
 H         2.866784         1.596459         2.204016
 H         5.485995        -0.632410         1.202151
 H         3.103163        -1.712360        -0.783380
 H         2.061490        -2.099304         0.759951
