19
Iteration:  2104
 C         0.279024        -0.561102        -0.881883
 C         1.554191        -0.063041        -0.199451
 C         2.486458         0.900108        -0.990642
 C         3.478540         1.075890         0.091000
 C         2.736081         0.841779         1.410901
 O         1.319870         0.734694         1.049052
 C         3.570732        -0.264176         0.842898
 O         4.713345        -0.868537         1.371064
 C         2.497909        -1.201562         0.346412
 H         0.301698        -1.562319        -0.985821
 H        -0.603410        -0.301762        -0.290039
 H         0.111611        -0.123583        -1.851926
 H         2.945098         0.337557        -1.846744
 H         1.943908         1.745002        -1.551411
 H         4.452610         1.681096         0.000034
 H         3.012030         1.130726         2.400605
 H         4.928109        -0.533869         2.226518
 H         2.720856        -1.965583        -0.438586
 H         1.957212        -1.756334         1.110374
