19
Iteration:  1249
 C         0.154318        -0.383496        -0.770485
 C         1.513261        -0.113105        -0.115545
 C         2.500419         0.650015        -1.127192
 C         3.535361         0.931846        -0.012294
 C         2.775323         0.976756         1.296273
 O         1.361045         0.730950         1.060373
 C         3.497704        -0.311653         0.924815
 O         4.758230        -0.730286         1.563498
 C         2.504565        -1.210437         0.319422
 H        -0.629730        -0.680753        -0.052081
 H        -0.292874         0.525165        -1.340094
 H         0.290186        -1.224603        -1.432724
 H         2.818004         0.014789        -1.935476
 H         2.126731         1.644923        -1.615394
 H         4.470773         1.515735        -0.011688
 H         3.031603         1.789658         1.999614
 H         5.277645        -1.094487         0.847082
 H         2.755861        -1.749862        -0.624631
 H         2.009043        -1.984840         0.946296
