19
Iteration:  4177
 C         0.192094        -0.353535        -0.859439
 C         1.580292        -0.096245        -0.218001
 C         2.427135         0.923590        -1.028722
 C         3.469331         1.093260         0.148893
 C         2.707166         0.696073         1.450654
 O         1.354729         0.524476         1.077826
 C         3.563545        -0.328041         0.849730
 O         4.706263        -0.709149         1.549940
 C         2.660785        -1.246249        -0.007958
 H        -0.308255         0.596553        -0.648236
 H         0.220523        -0.394712        -1.927847
 H        -0.420836        -1.141976        -0.342934
 H         2.915656         0.521183        -1.873203
 H         1.819798         1.887667        -1.268904
 H         4.222199         1.963853         0.273689
 H         2.969113         0.835905         2.477759
 H         4.413259        -0.792252         2.504320
 H         3.144479        -1.488478        -0.944788
 H         2.383690        -2.064752         0.612158
