19
Iteration:  2654charge 0 multiplicity 1
 C         0.251873        -0.486186        -0.877925
 C         1.584664        -0.109947        -0.242295
 C         2.476512         0.798479        -0.972348
 C         3.584762         0.944318         0.096446
 C         2.643869         0.903427         1.371403
 O         1.326495         0.745061         1.002798
 C         3.551428        -0.271797         0.921741
 O         4.669999        -0.815304         1.487189
 C         2.529197        -1.230546         0.235316
 H        -0.464184         0.375721        -0.643048
 H         0.434091        -0.519502        -1.989076
 H        -0.150775        -1.544964        -0.584357
 H         2.895161         0.445541        -1.918253
 H         1.878728         1.785703        -1.190088
 H         4.492542         1.686823         0.105935
 H         2.868570         1.551594         2.200786
 H         4.769260        -0.442989         2.376140
 H         3.024240        -1.641683        -0.653374
 H         2.374144        -1.908203         0.994751
