19
Iteration:   125
 C         0.124017        -0.363597        -0.726648
 C         1.491299        -0.014666        -0.181566
 C         2.495794         0.725099        -1.122747
 C         3.586534         0.880670        -0.074527
 C         2.783876         0.880276         1.199519
 O         1.416216         0.664152         0.984094
 C         3.549043        -0.373275         0.952964
 O         4.795715        -0.616234         1.566415
 C         2.408299        -1.267646         0.360110
 H        -0.612647        -0.346325         0.135718
 H        -0.187246         0.364421        -1.509187
 H         0.168161        -1.411968        -1.168564
 H         2.684716         0.104275        -1.971614
 H         2.131402         1.773048        -1.449675
 H         4.458356         1.725353        -0.215877
 H         2.992931         1.500117         2.000212
 H         4.616188        -0.946531         2.440033
 H         2.780301        -2.161966        -0.261370
 H         1.855821        -1.724154         1.231343
