19
Iteration:  3658charge 0 multiplicity 1
 C         0.224544        -0.381061        -0.942018
 C         1.576323        -0.110193        -0.240435
 C         2.509222         0.865861        -0.969298
 C         3.505873         1.011116         0.153085
 C         2.619574         0.802866         1.445544
 O         1.301157         0.655720         1.046276
 C         3.488696        -0.319460         0.895661
 O         4.832127        -0.688558         1.429024
 C         2.518109        -1.292920         0.208364
 H         0.159296         0.393877        -1.698552
 H         0.302585        -1.402560        -1.442526
 H        -0.486940        -0.274192        -0.159716
 H         2.940363         0.520053        -1.999434
 H         1.947107         1.810084        -1.077581
 H         4.492554         1.553495         0.218389
 H         2.881784         1.408291         2.321795
 H         4.569744        -1.354278         2.056591
 H         3.107997        -1.865064        -0.534302
 H         2.180443        -1.934551         1.026687
