19
Iteration:  4230
 C         0.297230        -0.534939        -0.962375
 C         1.602452        -0.021057        -0.269067
 C         2.474536         0.991686        -0.892019
 C         3.418256         1.081166         0.209267
 C         2.650139         0.785708         1.472174
 O         1.329061         0.631932         1.072270
 C         3.533738        -0.311719         0.891025
 O         4.754749        -0.848975         1.324841
 C         2.546772        -1.178612         0.200746
 H        -0.546938        -0.376753        -0.373259
 H         0.140432        -0.195325        -1.925772
 H         0.292934        -1.638169        -1.133183
 H         2.973403         0.653557        -1.847930
 H         1.907962         1.956768        -1.074035
 H         4.417232         1.684808         0.234434
 H         2.957537         1.556532         2.163127
 H         4.616065        -1.008222         2.306945
 H         3.041586        -1.842032        -0.501795
 H         2.117426        -1.824543         0.926049
