19
Iteration:  3942
 C         0.256807        -0.453244        -0.919700
 C         1.535081        -0.066927        -0.228695
 C         2.549453         0.862618        -0.966153
 C         3.521903         1.011598         0.241099
 C         2.670434         0.810767         1.496691
 O         1.277019         0.625793         1.044964
 C         3.523911        -0.318372         0.916237
 O         4.812430        -0.711009         1.325948
 C         2.483302        -1.212122         0.193137
 H        -0.537592         0.361047        -0.914016
 H         0.383822        -0.439536        -2.028400
 H        -0.261044        -1.333139        -0.657816
 H         3.014728         0.282514        -1.905543
 H         2.009277         1.762350        -1.250796
 H         4.327423         1.710057         0.279648
 H         2.806931         1.343719         2.466640
 H         4.832472        -1.176943         2.144077
 H         2.976535        -1.533021        -0.730965
 H         2.063835        -1.982921         0.800178
