19
Iteration:  3543
 C         0.325308        -0.472104        -0.949695
 C         1.549954        -0.075449        -0.191325
 C         2.509385         0.828537        -0.989938
 C         3.507573         1.061145         0.160377
 C         2.666053         0.945095         1.438162
 O         1.293896         0.698316         0.990019
 C         3.536618        -0.322885         0.866137
 O         4.734097        -0.849037         1.399221
 C         2.517927        -1.252011         0.282730
 H        -0.519698         0.299309        -0.540076
 H         0.417231        -0.166524        -1.969324
 H        -0.153533        -1.522015        -0.650170
 H         3.027158         0.234140        -1.661632
 H         1.880483         1.698651        -1.360372
 H         4.496923         1.823656         0.096967
 H         2.850584         1.205820         2.482960
 H         4.748206        -0.779183         2.329848
 H         2.868096        -1.857838        -0.564447
 H         2.119368        -1.831689         1.132595
