19
Iteration:  3166
 C         0.330407        -0.588649        -0.856507
 C         1.606699        -0.088688        -0.220984
 C         2.482574         0.878154        -0.936417
 C         3.536407         1.040234         0.173781
 C         2.642298         0.891786         1.385125
 O         1.331442         0.794589         0.980609
 C         3.529039        -0.251030         0.901204
 O         4.668748        -0.879234         1.469874
 C         2.538984        -1.181337         0.151830
 H        -0.087345         0.140340        -1.496377
 H         0.537026        -1.515860        -1.450220
 H        -0.228449        -0.772099         0.136584
 H         2.902052         0.480964        -1.927607
 H         1.929050         1.818600        -1.021466
 H         4.298868         1.609457        -0.093418
 H         2.745023         1.454288         2.335249
 H         4.395746        -1.589240         2.160316
 H         2.950568        -1.489947        -0.771046
 H         2.095025        -1.939698         0.671643
