19
Iteration:  2524
 C         0.292447        -0.434542        -0.950116
 C         1.617204        -0.139640        -0.217758
 C         2.496925         0.846622        -0.991292
 C         3.413066         1.080186         0.113676
 C         2.730729         0.877743         1.415847
 O         1.361962         0.645320         1.078008
 C         3.499200        -0.300687         0.875276
 O         4.711861        -0.778505         1.482400
 C         2.520907        -1.245207         0.206698
 H        -0.073834         0.337670        -1.691320
 H         0.244380        -1.427714        -1.445038
 H        -0.492475        -0.652136        -0.142338
 H         3.092532         0.397452        -1.705484
 H         1.949225         1.784455        -1.396417
 H         4.372425         1.714774         0.042819
 H         2.757293         1.428732         2.354103
 H         4.833387        -0.568280         2.380902
 H         2.884008        -1.857453        -0.652678
 H         1.944931        -1.999614         0.790406
