19
Iteration:  3433charge 0 multiplicity 1
 C         0.252654        -0.576826        -0.837363
 C         1.618209        -0.017434        -0.254642
 C         2.556486         0.937773        -0.997487
 C         3.529893         1.043178         0.179286
 C         2.668750         0.865660         1.375790
 O         1.328826         0.644614         0.972925
 C         3.535152        -0.251748         0.918818
 O         4.663683        -0.930322         1.396690
 C         2.517357        -1.133861         0.264136
 H        -0.125058         0.210297        -1.563277
 H         0.386057        -1.569478        -1.263784
 H        -0.625087        -0.696522        -0.173489
 H         3.015599         0.523985        -1.835267
 H         1.994449         1.850685        -1.378897
 H         4.254547         1.769762         0.356892
 H         2.778861         1.408607         2.346478
 H         4.921751        -0.684136         2.366784
 H         2.977275        -1.682512        -0.513704
 H         1.937016        -1.723654         0.883739
