19
Iteration:   155charge 0 multiplicity 1
 C         0.142065        -0.624833        -0.690180
 C         1.518950        -0.167108        -0.143741
 C         2.527845         0.659111        -1.097431
 C         3.607531         1.003203         0.017898
 C         2.787986         1.068067         1.293801
 O         1.425818         0.902387         0.976984
 C         3.553624        -0.200210         0.898360
 O         4.587132        -0.884696         1.430617
 C         2.532221        -1.169574         0.349879
 H        -0.522176        -0.411374         0.075969
 H        -0.129449         0.015667        -1.562447
 H         0.095904        -1.562259        -1.090746
 H         2.821678         0.279885        -2.026486
 H         1.968913         1.623992        -1.383389
 H         4.581511         1.555307        -0.264677
 H         3.004724         1.554616         2.227119
 H         4.134698        -1.430903         2.153969
 H         3.013658        -1.675389        -0.437502
 H         2.320133        -1.806445         1.168453
