19
Iteration:  2865charge 0 multiplicity 1
 C         0.167547        -0.493343        -0.913150
 C         1.494655        -0.120466        -0.226974
 C         2.578926         0.840241        -1.022952
 C         3.644834         0.940672         0.112788
 C         2.668253         0.922232         1.325435
 O         1.291424         0.674075         0.991815
 C         3.586096        -0.271166         0.985018
 O         4.762438        -0.785801         1.539351
 C         2.480515        -1.179465         0.241043
 H        -0.592252         0.227164        -0.559063
 H         0.050824        -0.443281        -2.094838
 H        -0.118477        -1.534287        -0.664116
 H         2.885559         0.391347        -2.026471
 H         2.146756         1.928690        -1.198168
 H         4.409317         1.854517        -0.000763
 H         2.765447         1.635475         2.101094
 H         4.686582        -1.311729         2.413240
 H         2.909983        -1.660899        -0.612767
 H         2.085039        -1.724344         1.058580
