19
Iteration:   690
 C         0.057068        -0.404116        -0.800573
 C         1.518215        -0.089333        -0.230997
 C         2.559601         0.663760        -1.114952
 C         3.549293         0.873158        -0.045878
 C         2.808717         0.969546         1.249357
 O         1.466305         0.725448         1.029067
 C         3.502754        -0.349563         0.930295
 O         4.728966        -0.666274         1.490007
 C         2.422744        -1.185735         0.478770
 H        -0.235922        -1.444231        -0.504557
 H        -0.581246         0.370870        -0.536918
 H         0.223118        -0.362134        -1.901919
 H         2.911525         0.037767        -1.936603
 H         2.063268         1.628274        -1.559177
 H         4.428193         1.370164        -0.243240
 H         3.030649         1.475827         2.184305
 H         4.740926        -0.834905         2.472901
 H         2.836370        -1.959634        -0.251496
 H         1.979486        -1.713744         1.304642
