19
Iteration:  1996
 C         0.197641        -0.423594        -0.841950
 C         1.548006        -0.085081        -0.223754
 C         2.447365         0.850998        -1.035103
 C         3.487895         0.999772         0.085273
 C         2.707769         0.925100         1.345115
 O         1.346498         0.591982         1.046262
 C         3.590191        -0.286645         0.962698
 O         4.802930        -0.847404         1.449227
 C         2.495532        -1.197812         0.261741
 H        -0.291209        -1.380686        -0.472867
 H        -0.549564         0.412065        -0.574526
 H         0.310407        -0.418227        -1.968147
 H         2.725010         0.294923        -1.863129
 H         1.877001         1.858328        -1.234246
 H         4.467150         1.581268        -0.068020
 H         2.778873         1.667997         2.138412
 H         5.197389        -0.372309         2.145974
 H         3.004778        -1.733107        -0.604774
 H         1.936844        -1.982941         0.855059
