19
Iteration:  4069
 C         0.258762        -0.374333        -0.926182
 C         1.579506        -0.095261        -0.266123
 C         2.439385         0.930312        -0.909761
 C         3.492363         1.103472         0.216177
 C         2.708463         0.787990         1.404701
 O         1.319310         0.499973         1.048390
 C         3.550875        -0.289046         0.908161
 O         4.758041        -0.782099         1.416527
 C         2.579280        -1.216234         0.113410
 H        -0.171047         0.598050        -1.264602
 H         0.399887        -1.143161        -1.720553
 H        -0.522812        -0.855969        -0.187950
 H         2.822586         0.720551        -1.845007
 H         1.797683         1.899908        -0.975303
 H         4.230460         1.842482         0.157136
 H         2.741826         1.229292         2.380448
 H         4.747980        -0.942825         2.362680
 H         3.069690        -1.890471        -0.643886
 H         1.884946        -1.871258         0.738525
