19
Iteration:  3783
 C         0.216768        -0.356691        -0.932324
 C         1.562919        -0.121890        -0.230547
 C         2.536949         0.835571        -0.963108
 C         3.507509         1.028229         0.096285
 C         2.666797         0.846700         1.404053
 O         1.330499         0.572560         1.120899
 C         3.583090        -0.313511         0.847306
 O         4.740194        -0.655795         1.537019
 C         2.520472        -1.260696         0.110971
 H        -0.401297         0.432543        -0.491272
 H         0.401351        -0.412094        -2.015970
 H        -0.266493        -1.325443        -0.593467
 H         2.967225         0.317315        -1.794276
 H         2.029808         1.897104        -1.247346
 H         4.345767         1.629172         0.149687
 H         2.939831         1.277532         2.424465
 H         4.460271        -1.313897         2.139731
 H         2.854281        -1.738976        -0.840669
 H         1.944522        -2.079341         0.682567
