19
Iteration:   809charge 0 multiplicity 1
 C         0.070389        -0.247041        -0.864844
 C         1.501742        -0.154519        -0.200457
 C         2.406633         0.683441        -1.080711
 C         3.568203         0.928775        -0.039903
 C         2.814003         1.009632         1.281789
 O         1.439408         0.656618         1.032978
 C         3.534647        -0.310012         0.996757
 O         4.797674        -0.706720         1.490247
 C         2.472493        -1.362897         0.404532
 H        -0.712056        -0.159857        -0.014663
 H        -0.065340         0.559197        -1.566058
 H         0.070174        -1.292596        -1.369881
 H         2.774067         0.009887        -1.897271
 H         1.844936         1.535917        -1.476453
 H         4.352806         1.545379        -0.353757
 H         3.106069         1.682648         2.112248
 H         4.996443        -0.537360         2.392800
 H         3.057228        -1.961945        -0.383320
 H         1.907541        -1.908563         1.147338
