19
Iteration:  4718charge 0 multiplicity 1
 C         0.179980        -0.340177        -0.870205
 C         1.580612        -0.057076        -0.293841
 C         2.510471         0.900542        -1.104748
 C         3.527174         1.044085         0.091442
 C         2.744456         0.836528         1.395065
 O         1.386500         0.547392         1.144400
 C         3.524207        -0.352911         0.833645
 O         4.691801        -0.756539         1.596102
 C         2.530208        -1.286930         0.155430
 H        -0.174907        -1.194024        -0.228886
 H        -0.415419         0.559172        -0.714070
 H         0.158467        -0.592183        -1.955743
 H         2.693512         0.242377        -1.930935
 H         1.891399         1.824115        -1.253289
 H         4.562625         1.500647        -0.116681
 H         2.923127         1.425921         2.287102
 H         4.440359        -0.342966         2.484689
 H         2.931573        -1.666060        -0.799666
 H         2.112747        -2.103383         0.829669
