19
Iteration:  4732charge 0 multiplicity 1
 C         0.214021        -0.394235        -0.802683
 C         1.512844        -0.069650        -0.173220
 C         2.463481         0.956036        -0.950903
 C         3.552496         0.957681         0.028435
 C         2.782740         0.816819         1.297473
 O         1.415534         0.554653         1.041519
 C         3.591356        -0.346332         0.795511
 O         4.631173        -0.724586         1.625139
 C         2.504361        -1.240826         0.084868
 H        -0.446520        -1.048961        -0.255211
 H        -0.386412         0.514460        -1.029265
 H         0.520304        -0.930553        -1.674741
 H         3.000766         0.658090        -1.930950
 H         2.131203         1.901543        -1.150315
 H         4.296732         1.707979         0.158557
 H         2.985374         1.356010         2.193648
 H         4.415948        -0.620310         2.540109
 H         2.824618        -1.874206        -0.721878
 H         1.994696        -1.863509         0.778189
