19
Iteration:  4839
 C         0.240532        -0.349210        -0.918956
 C         1.531012        -0.053818        -0.205869
 C         2.449972         0.888667        -0.959387
 C         3.572510         0.856830         0.004577
 C         2.709392         0.839842         1.420508
 O         1.310906         0.587791         1.100505
 C         3.540202        -0.326561         0.843183
 O         4.757422        -0.684880         1.496096
 C         2.533820        -1.253548         0.220461
 H        -0.609825        -0.582990        -0.239875
 H         0.046958         0.562991        -1.535575
 H         0.429694        -1.082132        -1.678919
 H         2.682014         0.539729        -2.000778
 H         1.937832         1.929309        -0.900995
 H         4.507847         1.274812        -0.185411
 H         2.974796         1.516404         2.267436
 H         4.641031        -0.860105         2.418608
 H         2.988672        -1.895058        -0.567431
 H         1.917121        -1.837664         0.953182
