19
Iteration:  4522
 C         0.318877        -0.542581        -1.009782
 C         1.556580        -0.066129        -0.150704
 C         2.479056         0.916659        -0.992699
 C         3.618853         0.940568        -0.049795
 C         2.756230         0.946995         1.353422
 O         1.324496         0.665841         1.087074
 C         3.567589        -0.259352         0.926819
 O         4.661418        -0.887383         1.429712
 C         2.413197        -1.159386         0.431115
 H         0.509542        -0.077803        -2.002370
 H         0.343822        -1.617370        -1.130930
 H        -0.610294        -0.005712        -0.644503
 H         2.699439         0.419206        -2.076137
 H         1.892384         1.870438        -1.086714
 H         4.300466         1.695886         0.005206
 H         2.749450         1.604084         2.220606
 H         4.688289        -0.753365         2.409180
 H         2.726738        -1.862054        -0.314152
 H         1.940351        -1.812764         1.179390
