19
Iteration:  2002
 C         0.226510        -0.366131        -0.804460
 C         1.494582        -0.097228        -0.231026
 C         2.473294         0.888521        -1.051627
 C         3.491447         0.953394         0.032122
 C         2.723200         0.908021         1.362923
 O         1.340374         0.566207         1.053873
 C         3.588073        -0.289842         0.909612
 O         4.755935        -0.829149         1.485950
 C         2.532533        -1.227834         0.252728
 H        -0.131225        -1.359104        -0.554228
 H        -0.507405         0.308648        -0.488744
 H         0.309803        -0.357215        -1.870976
 H         2.842637         0.374637        -2.047031
 H         1.930390         1.759609        -1.181556
 H         4.264827         1.635222        -0.042422
 H         2.800526         1.546030         2.260910
 H         5.135215        -0.090084         2.044695
 H         2.931749        -1.824202        -0.530365
 H         2.065062        -1.781977         1.057642
