19
Iteration:  2656
 C         0.231447        -0.470767        -0.873712
 C         1.564153        -0.115586        -0.249517
 C         2.491029         0.788963        -0.969033
 C         3.587849         0.956058         0.086054
 C         2.652018         0.901114         1.376703
 O         1.326432         0.736646         1.007936
 C         3.556730        -0.271860         0.918000
 O         4.692992        -0.806879         1.500831
 C         2.521094        -1.229135         0.229106
 H        -0.414910         0.375476        -0.704674
 H         0.416825        -0.569085        -2.046851
 H        -0.198730        -1.548130        -0.639938
 H         2.895183         0.427023        -1.854153
 H         1.949464         1.786814        -1.177292
 H         4.388382         1.642732         0.120415
 H         2.834154         1.567139         2.202894
 H         4.741960        -0.434396         2.350835
 H         2.999729        -1.647046        -0.637103
 H         2.360064        -1.944190         0.962790
