19
Iteration:   928charge 0 multiplicity 1
 C         0.108537        -0.332076        -0.735030
 C         1.531012        -0.117421        -0.214368
 C         2.459710         0.630907        -1.070882
 C         3.587714         0.893873        -0.030826
 C         2.752562         0.886071         1.278361
 O         1.406575         0.767549         1.000593
 C         3.571563        -0.273763         0.887230
 O         4.781653        -0.669317         1.541643
 C         2.455422        -1.242405         0.353336
 H        -0.325581        -1.260937        -0.237269
 H        -0.556948         0.474814        -0.599989
 H         0.159075        -0.562241        -1.837675
 H         2.845121        -0.166889        -1.836230
 H         1.994673         1.446247        -1.545738
 H         4.504462         1.489566        -0.391194
 H         3.062773         1.525492         2.079686
 H         4.609926        -1.052500         2.459435
 H         2.673792        -1.760963        -0.613346
 H         1.967364        -1.796682         1.161145
