19
Iteration:  3051charge 0 multiplicity 1
 C         0.262262        -0.544939        -0.836189
 C         1.544672         0.029358        -0.260613
 C         2.543424         0.894762        -1.086868
 C         3.546042         1.096759         0.108162
 C         2.701488         0.879469         1.402652
 O         1.333457         0.643226         1.019151
 C         3.559554        -0.298940         0.879538
 O         4.689072        -0.819519         1.547177
 C         2.494604        -1.199819         0.206581
 H        -0.689392         0.055558        -0.859530
 H         0.380085        -0.902871        -1.925053
 H         0.194780        -1.334919        -0.161764
 H         3.001862         0.276883        -1.818299
 H         2.121216         1.813893        -1.516554
 H         4.428714         1.598265         0.059883
 H         2.952943         1.272519         2.394349
 H         4.243992        -1.341390         2.318467
 H         2.874799        -1.929758        -0.600979
 H         1.845118        -1.717658         1.016046
