19
Iteration:  3447
 C         0.245162        -0.550201        -0.863459
 C         1.538525        -0.104061        -0.285759
 C         2.563421         0.986730        -1.046398
 C         3.550993         1.023285         0.109662
 C         2.669113         0.965175         1.418079
 O         1.327806         0.618238         1.067262
 C         3.534740        -0.262972         0.945160
 O         4.676282        -0.927803         1.463896
 C         2.547001        -1.174190         0.183308
 H        -0.235723         0.086853        -1.658076
 H         0.325663        -1.449015        -1.410926
 H        -0.363014        -0.659065         0.122588
 H         2.899513         0.545216        -2.092180
 H         2.168906         2.025020        -1.054617
 H         4.439313         1.861982         0.174143
 H         2.806068         1.809674         2.123349
 H         4.499267        -1.006344         2.379648
 H         3.040374        -1.726749        -0.611982
 H         2.103310        -1.904718         0.928865
