19
Iteration:  3417charge 0 multiplicity 1
 C         0.298013        -0.501083        -0.918695
 C         1.540635        -0.103869        -0.240528
 C         2.541561         0.855587        -0.961566
 C         3.511068         1.165170         0.179245
 C         2.646298         0.845485         1.517532
 O         1.314138         0.733326         0.982760
 C         3.529447        -0.304360         0.868304
 O         4.683327        -0.907002         1.411009
 C         2.502406        -1.210890         0.209979
 H        -0.105341         0.226956        -1.589249
 H         0.574439        -1.559463        -1.282125
 H        -0.234937        -0.608771         0.043589
 H         3.063515         0.400128        -1.923285
 H         2.184947         1.781913        -1.340740
 H         4.583844         1.613962        -0.100002
 H         2.810314         1.280130         2.486469
 H         4.992072        -0.186201         2.033508
 H         2.793310        -1.958735        -0.613210
 H         2.074295        -1.922925         1.058808
