19
Iteration:   262
 C         0.039438        -0.265098        -0.748263
 C         1.505445        -0.166741        -0.147646
 C         2.592887         0.545178        -1.160823
 C         3.577942         0.909667        -0.037764
 C         2.786703         1.008130         1.234745
 O         1.443907         0.682459         1.025242
 C         3.575591        -0.216894         0.855775
 O         4.682033        -0.680778         1.541298
 C         2.484976        -1.270799         0.398846
 H        -0.477380        -1.189250        -0.566566
 H        -0.600719         0.629646        -0.316824
 H         0.124187        -0.281618        -1.832766
 H         2.972035        -0.286608        -1.794478
 H         2.047740         1.345866        -1.644377
 H         4.549354         1.526935        -0.241555
 H         2.948358         1.535863         2.122464
 H         4.410568        -0.748492         2.509204
 H         2.729705        -1.975751        -0.376740
 H         2.070090        -1.858926         1.264020
