19
Iteration:   199charge 0 multiplicity 1
 C         0.180115        -0.573179        -0.674819
 C         1.573199        -0.093099        -0.248888
 C         2.536568         0.766073        -1.086060
 C         3.623860         0.907247        -0.058413
 C         2.789439         0.934564         1.319605
 O         1.414886         0.880075         0.959617
 C         3.474984        -0.309769         0.881582
 O         4.673664        -0.748299         1.470237
 C         2.405594        -1.212775         0.399710
 H        -0.284198        -0.902929         0.202196
 H        -0.434381         0.175600        -1.203991
 H         0.267426        -1.336077        -1.381302
 H         2.866267         0.309734        -1.983277
 H         2.054091         1.758717        -1.434028
 H         4.648998         1.470181        -0.105225
 H         3.086536         1.364256         2.231888
 H         4.417314        -1.159493         2.348122
 H         2.684214        -2.006727        -0.240856
 H         1.813582        -1.558525         1.215895
