19
Iteration:  1253charge 0 multiplicity 1
 C         0.169665        -0.406955        -0.771930
 C         1.504847        -0.101919        -0.094889
 C         2.529110         0.623957        -1.144254
 C         3.553519         0.923832        -0.016601
 C         2.757376         0.953233         1.309881
 O         1.357952         0.759722         1.087324
 C         3.512444        -0.276853         0.902203
 O         4.727099        -0.739404         1.555550
 C         2.477252        -1.201621         0.310149
 H        -0.556950        -0.705077         0.029122
 H        -0.228289         0.441130        -1.238885
 H         0.354360        -1.164197        -1.528386
 H         2.833759         0.008651        -1.989946
 H         2.077569         1.568270        -1.582468
 H         4.472734         1.435876        -0.038800
 H         2.983473         1.735848         2.030749
 H         5.245303        -0.981263         0.740434
 H         2.922036        -1.595246        -0.598261
 H         2.019259        -1.987450         0.899210
