19
Iteration:  1694charge 0 multiplicity 1
 C         0.186734        -0.557412        -0.839640
 C         1.547959        -0.077930        -0.181420
 C         2.452501         0.824488        -1.036407
 C         3.576257         0.902034         0.011853
 C         2.692942         1.038624         1.364692
 O         1.358218         0.806123         1.025330
 C         3.553902        -0.298878         0.944488
 O         4.749106        -0.874812         1.428285
 C         2.503450        -1.171704         0.413334
 H        -0.618175        -0.579616        -0.057698
 H        -0.183201         0.108586        -1.675312
 H         0.509503        -1.461214        -1.205149
 H         2.717971         0.524835        -2.119807
 H         1.925038         1.687780        -1.075143
 H         4.460760         1.485460         0.020626
 H         2.913380         1.874377         2.027762
 H         4.866781        -1.617567         0.839447
 H         3.013466        -1.753732        -0.360793
 H         2.050631        -1.833891         1.160211
