19
Iteration:  3907charge 0 multiplicity 1
 C         0.182371        -0.333516        -0.851194
 C         1.604467        -0.121975        -0.327427
 C         2.474608         0.943649        -0.956523
 C         3.564525         1.074679         0.110878
 C         2.714853         0.820214         1.409753
 O         1.306183         0.455867         1.067859
 C         3.601263        -0.326159         0.841146
 O         4.682829        -0.693591         1.569641
 C         2.592223        -1.208298         0.107520
 H        -0.226987         0.678808        -1.075758
 H         0.137101        -1.172269        -1.629088
 H        -0.338266        -0.736325         0.078273
 H         2.580920         0.513124        -2.069754
 H         1.731767         1.842798        -1.117212
 H         4.266154         1.833074         0.010281
 H         3.054583         1.171786         2.432040
 H         4.466476        -1.438738         2.074047
 H         3.128503        -1.798406        -0.677278
 H         2.105632        -2.032235         0.693931
