19
Iteration:   812
 C         0.074720        -0.242269        -0.849843
 C         1.515463        -0.147663        -0.204284
 C         2.423044         0.685869        -1.090160
 C         3.579015         0.943097        -0.047677
 C         2.790088         0.996778         1.265427
 O         1.428479         0.641868         1.043519
 C         3.540439        -0.303904         1.012195
 O         4.782972        -0.712246         1.470000
 C         2.484294        -1.372156         0.425060
 H        -0.618963        -0.198486        -0.050387
 H        -0.108859         0.520283        -1.558042
 H         0.111154        -1.269483        -1.318011
 H         2.733263         0.063546        -1.851218
 H         1.847693         1.661195        -1.479492
 H         4.499956         1.587835        -0.391905
 H         3.070421         1.726416         2.021894
 H         4.955767        -0.527562         2.447143
 H         2.952495        -2.027049        -0.358048
 H         1.831614        -1.889546         1.121591
