19
Iteration:  1144
 C         0.277294        -0.515456        -0.632629
 C         1.586620        -0.098114        -0.159466
 C         2.536816         0.777062        -1.085472
 C         3.615251         0.981694        -0.010970
 C         2.781967         1.047169         1.236786
 O         1.400830         0.729757         0.940948
 C         3.493746        -0.302107         0.848002
 O         4.589877        -0.869750         1.514270
 C         2.367828        -1.210040         0.388216
 H        -0.194116        -1.283941         0.086263
 H        -0.377540         0.352683        -0.602752
 H         0.123956        -0.999821        -1.615530
 H         3.066575         0.358705        -1.946588
 H         1.892511         1.591653        -1.371892
 H         4.479295         1.624975        -0.203782
 H         2.852276         1.660307         2.159449
 H         5.337906        -0.453238         1.145756
 H         2.720510        -1.936508        -0.320027
 H         1.868787        -1.598030         1.299252
