19
Iteration:  3202
 C         0.178450        -0.472886        -0.861062
 C         1.601333        -0.099235        -0.324017
 C         2.597297         0.909241        -1.009325
 C         3.522314         1.087283         0.063282
 C         2.689754         0.788265         1.432902
 O         1.385114         0.566736         1.051332
 C         3.545360        -0.293918         0.886001
 O         4.670421        -0.742720         1.574595
 C         2.516259        -1.125318         0.158716
 H        -0.360622         0.159606        -1.534709
 H         0.142314        -1.555669        -1.256300
 H        -0.433373        -0.519078         0.008104
 H         2.893151         0.443553        -1.911167
 H         2.097864         1.938834        -1.366874
 H         4.399414         1.850187         0.132727
 H         2.849758         1.295305         2.360687
 H         4.341184        -1.528857         2.141764
 H         2.916396        -1.765468        -0.647803
 H         1.999366        -1.779496         0.829662
