19
Iteration:  1517charge 0 multiplicity 1
 C         0.225760        -0.371278        -0.699685
 C         1.572188        -0.095860        -0.149028
 C         2.530947         0.654993        -1.117190
 C         3.515289         0.952544        -0.061563
 C         2.758248         0.927449         1.326633
 O         1.384466         0.739075         1.079833
 C         3.548502        -0.265812         0.813610
 O         4.670442        -0.708830         1.459920
 C         2.454708        -1.253637         0.325075
 H        -0.190774        -1.260571        -0.300106
 H        -0.382625         0.522519        -0.618433
 H         0.310365        -0.581057        -1.850342
 H         2.956769        -0.075153        -1.872424
 H         1.975167         1.424801        -1.586758
 H         4.433149         1.470771        -0.137432
 H         3.021319         1.514255         2.211290
 H         4.356222        -1.147577         2.255427
 H         2.840294        -2.075311        -0.334415
 H         2.073240        -1.607487         1.268574
