19
Iteration:  3382
 C         0.242606        -0.350757        -0.949013
 C         1.564772        -0.053006        -0.204881
 C         2.477843         0.865485        -1.015205
 C         3.551937         0.953650         0.065515
 C         2.683821         0.860650         1.407220
 O         1.317589         0.535210         1.027342
 C         3.513297        -0.251345         0.943939
 O         4.729210        -0.814270         1.620932
 C         2.529489        -1.214045         0.219623
 H        -0.391305         0.536699        -1.250528
 H         0.371644        -1.031216        -1.782852
 H        -0.514306        -0.982540        -0.375079
 H         2.823812         0.377294        -2.036022
 H         2.045117         1.863764        -1.145822
 H         4.480149         1.632562        -0.071489
 H         2.771194         1.524555         2.285055
 H         5.433667        -0.381559         1.062332
 H         3.050779        -1.632363        -0.655758
 H         1.950093        -1.937092         0.933240
