19
Iteration:  4172charge 0 multiplicity 1
 C         0.166767        -0.348827        -0.804516
 C         1.566848        -0.107047        -0.237069
 C         2.475466         0.931406        -1.023185
 C         3.444478         1.111834         0.170101
 C         2.702403         0.706535         1.489232
 O         1.349572         0.493780         1.044941
 C         3.525222        -0.277512         0.843116
 O         4.747903        -0.721799         1.564519
 C         2.660734        -1.226686        -0.040026
 H        -0.282364         0.674787        -0.843621
 H         0.303086        -0.527282        -1.917994
 H        -0.347603        -1.098928        -0.262621
 H         2.905265         0.504451        -2.053934
 H         1.888246         1.758632        -1.226107
 H         4.283814         1.718405         0.111023
 H         2.935616         1.015493         2.544078
 H         4.420801        -0.968019         2.450820
 H         3.094726        -1.587251        -0.998728
 H         2.275187        -2.080977         0.605002
