19
Iteration:  2428charge 0 multiplicity 1
 C         0.162590        -0.370368        -0.905308
 C         1.541194        -0.128014        -0.165006
 C         2.486895         0.827239        -0.997449
 C         3.514867         0.954064         0.060291
 C         2.693272         0.911988         1.288175
 O         1.313293         0.594481         1.022309
 C         3.577600        -0.308406         0.942196
 O         4.725890        -0.764962         1.684460
 C         2.581761        -1.214325         0.144372
 H        -0.258246         0.543918        -0.743058
 H         0.336638        -0.490806        -1.986878
 H        -0.461126        -1.258525        -0.609908
 H         2.894864         0.296429        -1.931480
 H         1.860200         1.749684        -1.224184
 H         4.316161         1.703279        -0.003384
 H         2.843222         1.486412         2.175270
 H         5.510646        -0.221851         1.431532
 H         2.961046        -1.822070        -0.688103
 H         2.204899        -2.090037         0.805505
