19
Iteration:  4365charge 0 multiplicity 1
 C         0.225870        -0.534195        -0.830789
 C         1.613688        -0.141761        -0.290957
 C         2.596305         0.873675        -1.002913
 C         3.546175         1.081229         0.201242
 C         2.642405         0.808394         1.354434
 O         1.277114         0.770984         0.983678
 C         3.559358        -0.289765         0.946127
 O         4.659459        -0.888311         1.439756
 C         2.506489        -1.189500         0.266162
 H         0.291872        -1.526246        -1.364282
 H        -0.451097        -0.576160         0.074867
 H        -0.197511         0.165567        -1.545452
 H         3.084582         0.536012        -1.892314
 H         1.919152         1.873021        -1.109290
 H         4.372164         1.686097         0.132446
 H         2.956335         1.330650         2.257943
 H         5.448754        -0.255714         1.445037
 H         2.853541        -1.696177        -0.644445
 H         1.985021        -1.720525         1.079041
