19
Iteration:  2194
 C         0.160858        -0.513084        -0.750359
 C         1.590536        -0.118057        -0.242344
 C         2.510322         0.884641        -1.068146
 C         3.549412         1.024468         0.056434
 C         2.732592         0.932593         1.394835
 O         1.387199         0.628953         1.047770
 C         3.521940        -0.267517         0.912134
 O         4.660302        -0.842228         1.528309
 C         2.543626        -1.168654         0.139434
 H         0.288782        -0.819883        -1.827208
 H        -0.172893        -1.409516        -0.244959
 H        -0.626290         0.166365        -0.704822
 H         2.898522         0.405297        -1.954336
 H         1.962649         1.948541        -1.403050
 H         4.480240         1.465943        -0.017264
 H         2.820165         1.616783         2.264503
 H         4.657487        -0.340274         2.326676
 H         3.060948        -1.630807        -0.762210
 H         2.097651        -2.044699         0.732148
