19
Iteration:  3839charge 0 multiplicity 1
 C         0.315476        -0.519380        -0.938199
 C         1.572467        -0.021464        -0.211633
 C         2.514070         1.023581        -0.942809
 C         3.489737         1.093949         0.177667
 C         2.709543         0.871535         1.453759
 O         1.279361         0.572813         1.028418
 C         3.490317        -0.288845         0.929840
 O         4.729690        -0.883712         1.316167
 C         2.531479        -1.216518         0.218297
 H        -0.390266         0.030927        -1.596969
 H         0.524030        -1.493626        -1.409977
 H        -0.386181        -0.947803        -0.086059
 H         2.999188         0.661149        -1.895316
 H         2.126742         2.143192        -1.265522
 H         4.483783         1.668652         0.408270
 H         2.850183         1.340320         2.385058
 H         4.879589        -0.664051         2.269562
 H         2.937044        -1.917718        -0.551411
 H         1.889003        -1.921149         0.907778
