19
Iteration:  2038charge 0 multiplicity 1
 C         0.112085        -0.432662        -0.760881
 C         1.550829        -0.135330        -0.206768
 C         2.440841         0.823723        -1.006461
 C         3.527921         1.038685         0.073459
 C         2.805886         0.874539         1.354746
 O         1.445726         0.633965         1.014881
 C         3.555196        -0.337979         0.766177
 O         4.635811        -0.693416         1.716667
 C         2.504945        -1.251284         0.080200
 H        -0.016370        -1.435566        -0.723000
 H        -0.648774         0.033529        -0.162701
 H         0.053025        -0.049518        -1.790375
 H         2.999129         0.522219        -1.845588
 H         1.962645         1.816197        -1.288565
 H         4.425671         1.702705        -0.167242
 H         3.019209         1.168413         2.384364
 H         5.464432        -0.669140         1.190767
 H         2.801970        -1.869811        -0.777406
 H         2.195696        -1.982953         0.807729
