19
Iteration:  3360charge 0 multiplicity 1
 C         0.223308        -0.366604        -0.898409
 C         1.573560        -0.174303        -0.282887
 C         2.484119         0.879774        -1.006230
 C         3.496233         1.059286         0.132939
 C         2.722848         0.805295         1.317267
 O         1.363617         0.615347         1.048490
 C         3.547534        -0.335862         0.864998
 O         4.652014        -0.694254         1.673381
 C         2.564127        -1.248775         0.180757
 H        -0.330997         0.585463        -0.619407
 H         0.271593        -0.621396        -1.925568
 H        -0.374522        -1.232942        -0.468744
 H         2.991400         0.512592        -1.988642
 H         2.012019         1.851977        -1.179085
 H         4.337736         1.772841         0.095373
 H         2.955762         1.344940         2.250364
 H         5.088255        -1.416202         1.147450
 H         2.924716        -1.867062        -0.665006
 H         2.068086        -1.851422         1.039959
