19
Iteration:   250
 C         0.117580        -0.222091        -0.768246
 C         1.481006        -0.082251        -0.164444
 C         2.507488         0.504713        -1.173835
 C         3.513044         0.874505        -0.173229
 C         2.772373         0.913185         1.308274
 O         1.418598         0.631186         1.050805
 C         3.562898        -0.284780         0.930694
 O         4.752689        -0.669277         1.589671
 C         2.502216        -1.184830         0.387770
 H        -0.396133        -1.105807        -0.364087
 H        -0.540496         0.691041        -0.451137
 H         0.133400        -0.050172        -1.881945
 H         2.834937        -0.322285        -1.904194
 H         2.385542         1.279795        -1.879262
 H         4.306326         1.651464        -0.160746
 H         2.990745         1.819029         1.788684
 H         4.523399        -0.724323         2.521910
 H         2.998468        -1.786897        -0.398303
 H         2.085541        -1.825063         1.248451
