19
Iteration:  3801
 C         0.264736        -0.381434        -0.969463
 C         1.495408        -0.093429        -0.179175
 C         2.460868         0.866493        -0.965232
 C         3.470799         1.072902         0.189887
 C         2.717918         0.791482         1.442476
 O         1.304874         0.622220         1.022374
 C         3.550239        -0.283823         0.892963
 O         4.748816        -0.776136         1.399371
 C         2.581225        -1.270647         0.230910
 H        -0.330565         0.579718        -1.090828
 H         0.639767        -0.466486        -2.028868
 H        -0.236832        -1.187193        -0.541788
 H         2.901526         0.351527        -1.821152
 H         1.860867         1.665223        -1.290154
 H         4.318447         1.729259         0.095806
 H         2.848167         1.309200         2.418983
 H         4.753189        -1.048792         2.286866
 H         3.112671        -1.749324        -0.600317
 H         2.313187        -1.899581         1.042992
