19
Iteration:  2353charge 0 multiplicity 1
 C         0.218180        -0.622604        -0.847635
 C         1.548163        -0.089802        -0.243783
 C         2.449683         0.855700        -1.059998
 C         3.500779         1.034864         0.094619
 C         2.735414         0.874394         1.369343
 O         1.347948         0.821542         0.995974
 C         3.555085        -0.252341         0.920814
 O         4.672657        -0.826091         1.570091
 C         2.593627        -1.160081         0.279656
 H        -0.485078         0.158198        -0.586179
 H         0.360437        -0.578835        -2.006615
 H        -0.154702        -1.706478        -0.529980
 H         3.006679         0.211087        -1.862640
 H         1.989243         1.764450        -1.235400
 H         4.378929         1.622286        -0.038779
 H         2.917464         1.376926         2.305303
 H         4.650507        -1.765802         1.381832
 H         3.180467        -1.536576        -0.581988
 H         2.149807        -1.900851         0.876504
