19
Iteration:   553charge 0 multiplicity 1
 C         0.180824        -0.386884        -0.719169
 C         1.513794        -0.030955        -0.167066
 C         2.544558         0.648668        -1.146755
 C         3.555623         0.939785        -0.093085
 C         2.790448         0.945256         1.260167
 O         1.397186         0.761727         1.030903
 C         3.499512        -0.307585         0.882710
 O         4.758900        -0.722736         1.540634
 C         2.426334        -1.250030         0.388024
 H        -0.480133        -0.826218         0.000023
 H        -0.376022         0.326545        -1.324486
 H         0.391430        -1.195332        -1.503688
 H         2.708134        -0.246087        -1.832872
 H         2.172552         1.450900        -1.713752
 H         4.385054         1.506818        -0.199919
 H         3.065256         1.470414         2.197474
 H         4.503565        -0.840332         2.473451
 H         2.708415        -1.982003        -0.349599
 H         1.835455        -1.735773         1.177758
