19
Iteration:  3625
 C         0.151950        -0.350564        -0.785683
 C         1.490504        -0.088199        -0.294986
 C         2.603057         0.869900        -1.035459
 C         3.517940         1.102712         0.146965
 C         2.653634         0.817464         1.418253
 O         1.361362         0.540575         1.047761
 C         3.499304        -0.255589         0.799792
 O         4.752265        -0.714547         1.607882
 C         2.595950        -1.256307         0.089479
 H        -0.236726         0.392241        -1.450587
 H         0.104549        -1.391699        -1.318904
 H        -0.606440        -0.526843        -0.036401
 H         2.967799         0.266065        -1.995802
 H         2.122957         1.712822        -1.543976
 H         4.515392         1.495319         0.092645
 H         2.829104         1.334130         2.428451
 H         4.526704        -1.463880         2.153691
 H         3.143322        -1.817205        -0.704665
 H         2.206215        -2.041940         0.756909
