19
Iteration:   605
 C         0.232407        -0.592870        -0.587488
 C         1.540428        -0.063546        -0.221653
 C         2.470526         0.763193        -1.134430
 C         3.562485         1.009871        -0.003960
 C         2.800932         0.997994         1.299451
 O         1.410299         0.887971         0.867836
 C         3.528211        -0.285245         0.852350
 O         4.665789        -0.919095         1.553420
 C         2.493767        -1.186413         0.374716
 H        -0.450630        -0.612788         0.263767
 H        -0.223074        -0.034211        -1.322313
 H         0.290305        -1.664298        -1.009135
 H         2.784714         0.254335        -1.959183
 H         1.987597         1.719591        -1.483344
 H         4.430038         1.579710        -0.221478
 H         2.959690         1.753265         2.084234
 H         4.245170        -1.453932         2.216499
 H         2.745693        -1.808600        -0.511445
 H         2.011982        -1.700843         1.176952
