19
Iteration:  3742
 C         0.208371        -0.452273        -0.769933
 C         1.579365        -0.106811        -0.301521
 C         2.509195         0.957063        -1.002543
 C         3.533404         1.023975         0.170916
 C         2.695792         0.834829         1.397675
 O         1.294904         0.672528         0.956791
 C         3.562077        -0.314772         0.830246
 O         4.706349        -0.783095         1.584847
 C         2.615833        -1.273743         0.085895
 H        -0.393900         0.315669        -0.353134
 H        -0.108318        -0.605907        -1.771784
 H        -0.302612        -1.381577        -0.377215
 H         2.978313         0.725641        -1.980367
 H         2.013746         1.887174        -1.088692
 H         4.319791         1.741117         0.085048
 H         2.911391         1.328678         2.370121
 H         4.181207        -1.149290         2.354844
 H         3.098162        -1.817532        -0.714876
 H         2.374551        -2.051992         0.804653
