19
Iteration:  1219charge 0 multiplicity 1
 C         0.126999        -0.337458        -0.755526
 C         1.573878        -0.232161        -0.238604
 C         2.465308         0.763156        -1.113604
 C         3.607016         0.993622        -0.075821
 C         2.792043         0.809273         1.345279
 O         1.397783         0.682493         0.979674
 C         3.557130        -0.295093         0.789190
 O         4.696058        -0.626764         1.612321
 C         2.466386        -1.241577         0.419899
 H        -0.609209        -0.377551         0.117045
 H        -0.138841         0.436757        -1.457528
 H        -0.169237        -1.251251        -1.119841
 H         2.652138         0.569883        -2.118743
 H         1.873893         1.788292        -1.020221
 H         4.507895         1.494959        -0.037711
 H         3.121668         1.364805         2.271526
 H         5.122243        -1.503724         1.315168
 H         2.615282        -2.025207        -0.278086
 H         2.000443        -1.660087         1.333345
