19
Iteration:   395
 C         0.150919        -0.334577        -0.765208
 C         1.504923        -0.094215        -0.221206
 C         2.507756         0.596641        -1.085907
 C         3.576958         0.813217        -0.029573
 C         2.825694         0.804366         1.308890
 O         1.411314         0.832360         1.011066
 C         3.499646        -0.424519         0.909639
 O         4.784355        -0.475172         1.500554
 C         2.383795        -1.279889         0.357499
 H        -0.490689        -0.015669         0.056068
 H        -0.036808         0.489686        -1.528911
 H        -0.067859        -1.316487        -1.044227
 H         2.790748        -0.053386        -1.845032
 H         2.138566         1.521712        -1.604750
 H         4.473459         1.213491        -0.247214
 H         3.051222         1.285904         2.292686
 H         4.551792        -0.801775         2.435934
 H         2.733155        -1.823182        -0.530836
 H         1.873510        -1.935519         1.065874
