19
Iteration:  4833
 C         0.255488        -0.344175        -0.934180
 C         1.560906        -0.077629        -0.230241
 C         2.423877         0.889470        -0.961401
 C         3.586964         0.876949         0.053375
 C         2.698091         0.842662         1.466919
 O         1.321763         0.590338         1.063108
 C         3.554680        -0.299865         0.867987
 O         4.788067        -0.692771         1.453447
 C         2.434357        -1.251379         0.246751
 H        -0.588611        -0.549952        -0.304913
 H         0.082331         0.539886        -1.546555
 H         0.400145        -1.258360        -1.568584
 H         2.695349         0.439134        -1.955739
 H         1.941439         1.812194        -0.917665
 H         4.550620         1.383749        -0.287477
 H         2.931715         1.513425         2.305044
 H         4.694375        -0.947960         2.419806
 H         2.924816        -1.788242        -0.565539
 H         1.976824        -1.896899         0.974921
