19
Iteration:  3717
 C         0.318290        -0.549258        -0.873773
 C         1.538410        -0.008609        -0.199684
 C         2.512831         0.916683        -0.989290
 C         3.507961         1.069185         0.127101
 C         2.725826         0.894042         1.394735
 O         1.361846         0.609513         1.059538
 C         3.507575        -0.240003         0.910527
 O         4.659855        -0.898930         1.448511
 C         2.527833        -1.149076         0.134528
 H        -0.462654         0.209066        -0.984341
 H         0.401115        -1.018881        -1.789136
 H        -0.265378        -1.287040        -0.370090
 H         2.911950         0.360177        -1.797155
 H         2.055807         1.926476        -1.383595
 H         4.333298         1.723454         0.092431
 H         2.885220         1.257256         2.431695
 H         4.445534        -0.856213         2.447319
 H         3.075067        -1.651604        -0.686253
 H         2.146017        -1.985873         0.787801
