19
Iteration:  3627
 C         0.129206        -0.352012        -0.792623
 C         1.506166        -0.063719        -0.282599
 C         2.606011         0.846709        -1.030766
 C         3.511256         1.098248         0.147917
 C         2.666617         0.813999         1.419733
 O         1.351244         0.516227         1.039187
 C         3.490599        -0.257807         0.822204
 O         4.764258        -0.699563         1.599398
 C         2.578507        -1.241777         0.087572
 H        -0.198249         0.420330        -1.504141
 H         0.160717        -1.358098        -1.276079
 H        -0.555609        -0.498896        -0.042185
 H         2.998045         0.314762        -1.934309
 H         2.101865         1.722770        -1.603252
 H         4.620156         1.512055         0.065965
 H         2.849662         1.353017         2.361620
 H         4.494962        -1.530304         2.136716
 H         3.157308        -1.813719        -0.706249
 H         2.199933        -2.064593         0.759881
