19
Iteration:  2354charge 0 multiplicity 1
 C         0.215006        -0.623149        -0.849586
 C         1.537906        -0.094771        -0.247361
 C         2.450402         0.853641        -1.065718
 C         3.498539         1.034560         0.093148
 C         2.730386         0.877989         1.381225
 O         1.349505         0.819456         0.995089
 C         3.544801        -0.258064         0.936602
 O         4.683097        -0.827107         1.560618
 C         2.600855        -1.149460         0.278400
 H        -0.501022         0.188615        -0.557676
 H         0.370887        -0.564248        -2.025728
 H        -0.128917        -1.716291        -0.546455
 H         2.985036         0.202213        -1.888271
 H         2.051279         1.778473        -1.245190
 H         4.421968         1.657631        -0.043751
 H         2.929223         1.385450         2.299086
 H         4.640268        -1.753775         1.453076
 H         3.157320        -1.599318        -0.590560
 H         2.151781        -1.892431         0.868766
