19
Iteration:  4325
 C         0.229407        -0.413929        -0.917018
 C         1.514814        -0.156963        -0.263501
 C         2.452641         0.890623        -1.004503
 C         3.489861         1.047893         0.020962
 C         2.724256         0.840076         1.371461
 O         1.439432         0.592791         1.145264
 C         3.540683        -0.338500         0.846775
 O         4.646150        -0.706444         1.727225
 C         2.542294        -1.191200         0.069068
 H         0.056434        -1.493043        -0.828757
 H        -0.504875         0.233581        -0.304978
 H         0.129325         0.038907        -1.938639
 H         2.913738         0.486535        -1.975420
 H         1.884418         1.741938        -1.208586
 H         4.373427         1.679684         0.227243
 H         2.977735         1.280594         2.366652
 H         5.091599        -1.324483         1.171884
 H         3.063553        -1.687123        -0.789141
 H         2.251712        -2.031574         0.782377
