19
Iteration:   130
 C         0.181717        -0.380546        -0.701837
 C         1.531824        -0.071920        -0.190062
 C         2.467274         0.750873        -1.079775
 C         3.560670         0.932220        -0.071982
 C         2.788015         0.891236         1.198673
 O         1.424828         0.715741         0.972643
 C         3.545697        -0.341806         0.928046
 O         4.750014        -0.657105         1.549788
 C         2.407653        -1.306031         0.354003
 H        -0.486192        -0.260760         0.164822
 H        -0.151496         0.240853        -1.531356
 H         0.192113        -1.395132        -1.139907
 H         2.752507         0.089629        -1.999035
 H         2.072244         1.648601        -1.481421
 H         4.316417         1.566207        -0.237693
 H         3.020754         1.572038         2.071699
 H         4.504047        -1.092623         2.412895
 H         2.852360        -2.112314        -0.208831
 H         1.879789        -1.635747         1.268531
