19
Iteration:  3547
 C         0.337354        -0.496374        -0.944670
 C         1.521177        -0.040081        -0.166079
 C         2.488215         0.831650        -0.976612
 C         3.553184         1.060806         0.166384
 C         2.644630         0.924139         1.455207
 O         1.353364         0.691485         0.996323
 C         3.535741        -0.281172         0.832315
 O         4.717566        -0.862241         1.404689
 C         2.515291        -1.233187         0.279086
 H        -0.518026         0.115357        -0.679018
 H         0.421300        -0.307918        -2.036498
 H        -0.126842        -1.476868        -0.752733
 H         3.064242         0.153487        -1.771010
 H         1.863548         1.596569        -1.350120
 H         4.328417         1.748327         0.048510
 H         2.758843         1.244943         2.460327
 H         4.786647        -0.745637         2.403183
 H         2.690594        -1.785019        -0.629780
 H         1.989845        -1.757827         1.068875
