19
Iteration:  3030charge 0 multiplicity 1
 C         0.315466        -0.629248        -0.867037
 C         1.548667        -0.113673        -0.168189
 C         2.568734         0.915768        -0.942182
 C         3.545835         1.021628         0.135866
 C         2.690881         0.907739         1.402027
 O         1.378778         0.796969         1.000074
 C         3.526896        -0.272563         0.885632
 O         4.596438        -0.853199         1.423720
 C         2.496271        -1.168052         0.206574
 H        -0.307069         0.191455        -1.421134
 H         0.523509        -1.326708        -1.742697
 H        -0.338173        -1.274691        -0.322816
 H         2.916429         0.474061        -1.911118
 H         1.838668         1.686042        -1.117076
 H         4.348332         1.619811         0.071437
 H         3.044559         1.451550         2.279685
 H         4.363357        -1.083057         2.303241
 H         3.004779        -1.516039        -0.732161
 H         2.225716        -2.013495         0.908651
