19
Iteration:   239charge 0 multiplicity 1
 C         0.170569        -0.227466        -0.758736
 C         1.532997        -0.108605        -0.227213
 C         2.447129         0.557157        -1.188932
 C         3.538076         0.819373        -0.111521
 C         2.762050         0.893053         1.237023
 O         1.329137         0.724993         1.092910
 C         3.597432        -0.268867         0.965578
 O         4.808922        -0.663615         1.620211
 C         2.481080        -1.231741         0.344527
 H        -0.460117        -1.069725        -0.406307
 H        -0.289237         0.783406        -0.388374
 H         0.174297        -0.370948        -1.891203
 H         2.697011        -0.348524        -1.844696
 H         2.014697         1.413215        -1.692441
 H         4.263454         1.573449        -0.475427
 H         3.064541         1.676654         1.896040
 H         4.711813        -0.782872         2.545976
 H         2.967549        -1.915044        -0.383906
 H         1.838517        -1.892370         1.034429
