19
Iteration:  1629
 C         0.131492        -0.328395        -0.648275
 C         1.564699        -0.121685        -0.210264
 C         2.418508         0.784213        -1.123278
 C         3.574100         0.889193        -0.063914
 C         2.749559         0.942590         1.236802
 O         1.383724         0.659180         0.956276
 C         3.623564        -0.270442         0.922209
 O         4.739441        -0.827384         1.659532
 C         2.521413        -1.260632         0.248570
 H        -0.520608        -0.740824         0.174653
 H        -0.451199         0.638114        -0.885061
 H         0.011815        -0.919276        -1.507809
 H         2.483013         0.203335        -2.127320
 H         1.810635         1.590367        -1.259584
 H         4.511600         1.528917        -0.114219
 H         2.733998         1.702417         2.034798
 H         5.104591        -0.085631         2.168437
 H         2.913547        -1.684998        -0.662639
 H         1.978075        -1.927239         0.912513
