19
Iteration:  1035
 C         0.160648        -0.582059        -0.632781
 C         1.555360        -0.038064        -0.180034
 C         2.477626         0.785666        -1.114370
 C         3.586610         0.936174        -0.022320
 C         2.763139         0.948101         1.292463
 O         1.405848         0.869043         0.939819
 C         3.543964        -0.332734         0.890059
 O         4.674602        -0.739034         1.601248
 C         2.458640        -1.228978         0.257090
 H        -0.351796        -0.699247         0.378695
 H        -0.391484         0.199765        -1.169246
 H         0.225672        -1.489216        -1.155376
 H         2.736009         0.179851        -2.065334
 H         2.004499         1.680216        -1.404986
 H         4.565484         1.563958        -0.202814
 H         3.080027         1.453840         2.177008
 H         4.723495        -1.737368         1.552143
 H         2.958754        -1.712767        -0.581238
 H         2.147869        -2.118987         0.862980
