19
Iteration:  2450charge 0 multiplicity 1
 C         0.260231        -0.463387        -0.841679
 C         1.619547        -0.080646        -0.241058
 C         2.531878         0.866244        -1.031348
 C         3.522299         1.042633         0.105873
 C         2.710622         0.851655         1.367833
 O         1.356092         0.591270         1.039643
 C         3.504740        -0.243932         0.887991
 O         4.564772        -0.729694         1.614220
 C         2.569435        -1.214175         0.185259
 H        -0.293066         0.374832        -1.079877
 H         0.227342        -1.134475        -1.721814
 H        -0.286601        -1.082876        -0.076414
 H         2.847449         0.290665        -1.976275
 H         2.053787         1.876242        -1.210516
 H         4.424824         1.669075        -0.090077
 H         2.813333         1.423365         2.267022
 H         5.135947        -1.247035         0.980732
 H         3.000950        -1.751607        -0.713102
 H         2.249058        -2.057928         0.903735
