19
Iteration:  3444charge 0 multiplicity 1
 C         0.228801        -0.563187        -0.865471
 C         1.546064        -0.097722        -0.271003
 C         2.562511         0.976581        -1.063437
 C         3.561944         1.028377         0.122474
 C         2.652599         0.965867         1.425309
 O         1.333076         0.616454         1.049225
 C         3.545285        -0.264564         0.949416
 O         4.672897        -0.933968         1.439660
 C         2.543955        -1.169700         0.202758
 H        -0.185835         0.156124        -1.645983
 H         0.394706        -1.511209        -1.351414
 H        -0.326909        -0.637451         0.076519
 H         2.887493         0.629671        -1.977075
 H         2.214916         2.059181        -1.116273
 H         4.259487         1.798815         0.296427
 H         2.913807         1.795248         2.132021
 H         4.522672        -0.900980         2.411850
 H         3.021652        -1.744770        -0.549695
 H         2.044666        -1.838907         0.825331
