19
Iteration:  3564
 C         0.285793        -0.566274        -0.960717
 C         1.528863        -0.058141        -0.235512
 C         2.527516         0.885378        -0.990391
 C         3.491265         1.066572         0.092710
 C         2.782934         0.835647         1.401274
 O         1.322948         0.688077         1.111122
 C         3.549629        -0.296251         0.904878
 O         4.665955        -0.868697         1.436683
 C         2.447497        -1.132052         0.232151
 H        -0.652067         0.099017        -0.886180
 H         0.638622        -0.582804        -1.971426
 H         0.117396        -1.586877        -0.496414
 H         2.870416         0.381821        -1.811576
 H         2.143358         1.942626        -1.215374
 H         4.514181         1.695476         0.129214
 H         3.030406         1.521865         2.213356
 H         4.661054        -0.624672         2.397101
 H         2.975779        -1.725543        -0.538294
 H         2.048088        -1.810690         1.009207
