19
Iteration:  4552
 C         0.227294        -0.491523        -0.938182
 C         1.539905        -0.072480        -0.237207
 C         2.516479         0.880087        -1.005502
 C         3.517310         0.947067         0.060444
 C         2.822546         0.897052         1.410796
 O         1.342810         0.760076         1.018391
 C         3.561066        -0.390166         0.896238
 O         4.707787        -0.750461         1.503762
 C         2.468305        -1.234555         0.308302
 H         0.196029        -0.177037        -1.990025
 H        -0.038006        -1.578057        -0.872229
 H        -0.667280         0.071501        -0.514065
 H         2.956771         0.269607        -1.765155
 H         1.769069         1.717658        -1.307816
 H         4.428605         1.428647        -0.138218
 H         2.774875         1.204065         2.408087
 H         4.629997        -0.621200         2.481346
 H         2.924237        -1.659585        -0.623942
 H         1.924052        -1.989010         0.957104
