19
Iteration:  2389
 C         0.280444        -0.455592        -0.847796
 C         1.557264        -0.148118        -0.230851
 C         2.596979         0.836705        -0.985263
 C         3.530622         1.039505         0.113605
 C         2.673377         0.907498         1.331247
 O         1.326120         0.598978         1.011698
 C         3.498998        -0.339007         0.857309
 O         4.691110        -0.718034         1.445979
 C         2.474043        -1.227059         0.308243
 H        -0.473020         0.296437        -0.315743
 H         0.315584        -0.169018        -1.953211
 H        -0.081642        -1.485073        -0.681306
 H         2.985617         0.348086        -1.898701
 H         2.314833         1.801276        -1.384433
 H         4.558539         1.611454         0.070265
 H         2.896551         1.426009         2.268009
 H         4.718044        -0.362028         2.327659
 H         2.731963        -1.926642        -0.523200
 H         1.952185        -1.766278         1.134278
