19
Iteration:   460
 C         0.277725        -0.651991        -0.628429
 C         1.552867        -0.037512        -0.137566
 C         2.523143         0.742648        -1.136681
 C         3.578266         0.934958        -0.059633
 C         2.801619         1.016209         1.231719
 O         1.390246         0.964491         0.941968
 C         3.525315        -0.280427         0.842146
 O         4.610242        -0.915813         1.512414
 C         2.409351        -1.181141         0.420527
 H         0.029140        -1.536750        -0.028355
 H        -0.553967         0.149711        -0.522382
 H         0.367259        -0.916265        -1.642669
 H         2.841395         0.155975        -1.942927
 H         2.147429         1.693558        -1.573854
 H         4.439651         1.528095        -0.167033
 H         3.092250         1.750718         1.951449
 H         4.418204        -1.240737         2.399061
 H         2.797328        -1.806435        -0.418214
 H         1.931767        -1.817879         1.212552
