19
Iteration:  4168charge 0 multiplicity 1
 C         0.169583        -0.330704        -0.777090
 C         1.554728        -0.120968        -0.270967
 C         2.520158         0.921764        -1.008348
 C         3.425408         1.112708         0.187921
 C         2.683551         0.728619         1.508252
 O         1.346921         0.467354         1.029236
 C         3.528209        -0.261541         0.826073
 O         4.769306        -0.727826         1.563721
 C         2.649037        -1.205243        -0.041680
 H        -0.338805         0.686638        -0.905721
 H         0.329024        -0.733681        -1.858422
 H        -0.382689        -1.124052        -0.180836
 H         2.831165         0.574653        -1.930679
 H         1.875079         1.854274        -1.239613
 H         4.471416         1.643709         0.013327
 H         2.826538         1.210746         2.487956
 H         4.433279        -1.118079         2.425530
 H         3.063620        -1.646582        -0.991567
 H         2.204478        -2.077747         0.534032
