19
Iteration:  2024charge 0 multiplicity 1
 C         0.161057        -0.407556        -0.788044
 C         1.544543        -0.146934        -0.239494
 C         2.482705         0.891335        -0.987599
 C         3.594435         1.092198         0.041556
 C         2.777340         0.736198         1.320974
 O         1.415692         0.618651         1.061180
 C         3.610874        -0.301696         0.737075
 O         4.554176        -0.686373         1.603955
 C         2.529351        -1.299833         0.239326
 H        -0.274886        -1.396942        -0.728547
 H        -0.440025         0.208734        -0.198769
 H         0.033738        -0.075584        -1.818370
 H         2.722714         0.234343        -1.942966
 H         1.850996         1.695218        -1.182235
 H         4.476960         1.615408        -0.062516
 H         3.034125         1.097666         2.345306
 H         5.329005        -0.111090         1.564200
 H         2.846953        -1.868614        -0.594000
 H         2.035418        -1.841335         1.022174
