19
Iteration:  4824
 C         0.275686        -0.363249        -0.973105
 C         1.535026        -0.144325        -0.209830
 C         2.469063         0.848702        -0.946871
 C         3.550710         1.018958         0.099233
 C         2.726205         0.823571         1.432244
 O         1.379660         0.637116         1.021896
 C         3.528026        -0.332022         0.982744
 O         4.823535        -0.715485         1.370638
 C         2.374670        -1.233433         0.290783
 H        -0.543228        -0.437193        -0.214405
 H        -0.092039         0.384754        -1.672131
 H         0.261053        -1.387198        -1.483941
 H         2.749763         0.548398        -1.923667
 H         1.925898         1.799112        -1.270251
 H         4.458466         1.707932         0.113939
 H         2.746777         1.357388         2.345815
 H         4.613574        -1.117360         2.273097
 H         2.708020        -1.785918        -0.602542
 H         1.953809        -1.992418         0.978101
