19
Iteration:  3292
 C         0.265482        -0.565217        -0.879213
 C         1.595278        -0.082169        -0.259585
 C         2.502839         0.889313        -0.949575
 C         3.554207         1.057372         0.153598
 C         2.648218         0.905209         1.412225
 O         1.324316         0.739732         0.965641
 C         3.546825        -0.256910         0.871263
 O         4.671808        -0.845390         1.469792
 C         2.587596        -1.202425         0.217760
 H        -0.457855         0.156024        -0.361996
 H         0.288380        -0.438539        -1.919623
 H         0.001254        -1.597110        -0.703114
 H         2.899009         0.510187        -1.889170
 H         1.786193         1.776356        -1.121736
 H         4.526199         1.489166         0.144402
 H         2.886770         1.286775         2.403061
 H         4.294553        -1.528144         2.131282
 H         2.957618        -1.898294        -0.541936
 H         2.014390        -1.758758         1.017443
