19
Iteration:   159charge 0 multiplicity 1
 C         0.142602        -0.628822        -0.689303
 C         1.498064        -0.127654        -0.137937
 C         2.530370         0.685163        -1.071629
 C         3.622676         0.998800         0.000502
 C         2.790362         1.061699         1.270334
 O         1.415711         0.902137         0.970077
 C         3.539043        -0.173318         0.920624
 O         4.595258        -0.923839         1.434405
 C         2.539523        -1.154021         0.334764
 H        -0.686200        -0.519501         0.117144
 H        -0.188044        -0.033004        -1.529095
 H         0.198378        -1.747445        -1.043832
 H         2.845655         0.105649        -1.984893
 H         2.070144         1.627140        -1.414383
 H         4.541026         1.629872        -0.230329
 H         2.957530         1.624378         2.172528
 H         4.267884        -1.480655         2.127960
 H         3.131346        -1.705339        -0.478989
 H         2.273660        -1.843192         1.188337
