19
Iteration:  2511
 C         0.312321        -0.559470        -0.885011
 C         1.565241        -0.071346        -0.246192
 C         2.483610         0.882686        -1.029190
 C         3.524336         1.051751         0.147603
 C         2.688669         0.938303         1.437961
 O         1.386854         0.640910         1.026965
 C         3.458911        -0.295890         1.013854
 O         4.666563        -0.795054         1.403922
 C         2.542441        -1.218841         0.188738
 H        -0.005799         0.236055        -1.705451
 H         0.499106        -1.503541        -1.346320
 H        -0.483354        -0.493115        -0.150463
 H         2.724199         0.496269        -1.957353
 H         1.856147         1.782993        -1.235293
 H         4.476054         1.471952         0.081918
 H         2.894545         1.507388         2.336303
 H         4.522590        -1.021987         2.395447
 H         3.128807        -1.517315        -0.672154
 H         2.163300        -1.977176         0.753827
