19
Iteration:  3522
 C         0.204437        -0.345301        -0.889177
 C         1.571365        -0.137080        -0.297318
 C         2.582930         0.815809        -1.024290
 C         3.527043         0.962482         0.136457
 C         2.598498         0.838549         1.428261
 O         1.364604         0.613385         1.007418
 C         3.509848        -0.254638         0.975932
 O         4.764671        -0.736426         1.422328
 C         2.545570        -1.247808         0.285991
 H        -0.624668         0.394622        -0.543463
 H         0.197728        -0.269767        -1.952970
 H        -0.316178        -1.367901        -0.617309
 H         3.052103         0.433382        -1.921813
 H         1.967917         1.724162        -1.165267
 H         4.446955         1.731968         0.118232
 H         2.708292         1.695095         2.056601
 H         4.703493        -1.151702         2.358783
 H         2.984648        -1.727432        -0.543863
 H         1.878222        -1.840394         0.871513
