19
Iteration:  4226charge 0 multiplicity 1
 C         0.285803        -0.535335        -0.975662
 C         1.597781        -0.035093        -0.309678
 C         2.441280         1.034379        -0.910798
 C         3.449171         1.087596         0.179417
 C         2.664566         0.762497         1.447448
 O         1.347201         0.603894         1.090039
 C         3.538705        -0.312632         0.927203
 O         4.754750        -0.845634         1.345137
 C         2.545073        -1.177195         0.237511
 H        -0.617784        -0.270405        -0.336657
 H         0.179352        -0.047016        -2.018850
 H         0.351655        -1.622018        -1.021540
 H         2.864225         0.587156        -1.865864
 H         1.921004         1.920125        -1.038294
 H         4.302123         1.609568         0.218132
 H         2.942420         1.465590         2.221071
 H         4.624897        -0.900639         2.281002
 H         3.135632        -1.688714        -0.574075
 H         1.935037        -1.837796         0.952611
