19
Iteration:  3286charge 0 multiplicity 1
 C         0.293196        -0.520119        -0.868751
 C         1.606357        -0.147630        -0.268334
 C         2.551720         0.899601        -0.947010
 C         3.516107         1.056620         0.167028
 C         2.727965         0.875872         1.409016
 O         1.279862         0.731825         1.001492
 C         3.525302        -0.288022         0.804482
 O         4.652201        -0.823471         1.456830
 C         2.553345        -1.187958         0.262820
 H        -0.435654         0.162646        -0.498309
 H         0.325512        -0.451225        -2.034589
 H         0.033714        -1.610971        -0.698676
 H         2.926840         0.416237        -1.899037
 H         1.947604         1.732763        -1.105647
 H         4.428276         1.750190         0.052412
 H         2.824955         1.323331         2.388747
 H         4.407272        -1.322203         2.213946
 H         2.936696        -1.814429        -0.562052
 H         1.941777        -1.734155         1.024537
