19
Iteration:  3705
 C         0.287584        -0.561658        -0.956366
 C         1.557967        -0.040786        -0.279773
 C         2.500060         0.947562        -1.048237
 C         3.502523         1.063410         0.114510
 C         2.734278         0.911217         1.472116
 O         1.288933         0.618196         1.194573
 C         3.524306        -0.324814         0.876173
 O         4.673758        -0.888153         1.422572
 C         2.524860        -1.145734         0.220004
 H        -0.253182         0.293005        -1.405875
 H         0.759562        -1.127849        -1.726288
 H        -0.089174        -1.110643        -0.186164
 H         2.953661         0.462079        -1.904862
 H         2.125883         2.021842        -1.438217
 H         4.430622         1.705645        -0.010913
 H         2.981907         1.533102         2.323356
 H         4.710186        -0.897102         2.374391
 H         2.954885        -1.671989        -0.680356
 H         1.973512        -1.842010         0.931638
