19
Iteration:  4932
 C         0.267422        -0.534944        -0.911581
 C         1.532532        -0.022248        -0.195769
 C         2.483619         0.837268        -1.031591
 C         3.532240         0.976851         0.067908
 C         2.784610         0.893872         1.413879
 O         1.338601         0.831982         1.003741
 C         3.538013        -0.305249         0.861777
 O         4.780867        -0.784446         1.444272
 C         2.397140        -1.271552         0.368287
 H         0.294940        -1.602885        -0.633855
 H        -0.616211        -0.093039        -0.481240
 H         0.225786        -0.258656        -1.999653
 H         2.963234         0.103879        -1.795076
 H         2.012404         1.777344        -1.326761
 H         4.348756         1.675175         0.104444
 H         2.955551         1.364670         2.357552
 H         4.437650        -1.555048         2.011041
 H         2.805451        -1.944052        -0.401099
 H         1.775688        -1.861703         1.046886
