19
Iteration:  1852
 C         0.233495        -0.465331        -0.754602
 C         1.546424        -0.144449        -0.208589
 C         2.470398         0.869708        -0.966222
 C         3.549604         0.970207         0.111428
 C         2.708730         0.913768         1.352176
 O         1.331370         0.730620         0.954020
 C         3.538910        -0.345853         0.861148
 O         4.809426        -0.766582         1.391931
 C         2.493881        -1.206754         0.311105
 H        -0.420339        -0.826845         0.042094
 H        -0.316511         0.369295        -1.230745
 H         0.317234        -1.302075        -1.588154
 H         2.809495         0.415612        -1.850432
 H         1.981649         1.884266        -1.156812
 H         4.376021         1.657311        -0.100244
 H         2.787092         1.674330         2.106448
 H         4.569776        -1.418668         2.038850
 H         2.708082        -1.969862        -0.462691
 H         1.982306        -1.758379         1.112794
