19
Iteration:  2895charge 0 multiplicity 1
 C         0.379093        -0.600099        -0.884985
 C         1.567283        -0.067415        -0.201705
 C         2.510073         0.885491        -1.045134
 C         3.482074         1.061456         0.108626
 C         2.731762         0.906345         1.360372
 O         1.389664         0.795827         1.056520
 C         3.488488        -0.297595         0.927396
 O         4.589291        -0.864705         1.452952
 C         2.484644        -1.200427         0.243800
 H        -0.292693         0.169343        -0.932592
 H         0.730127        -1.060163        -1.819126
 H         0.080146        -1.497839        -0.272513
 H         2.908330         0.415602        -1.850431
 H         1.940700         1.783653        -1.476152
 H         4.475375         1.740693         0.010763
 H         2.898371         1.396022         2.295542
 H         4.514000        -1.099853         2.351575
 H         2.877545        -1.850870        -0.677529
 H         2.016712        -1.898556         1.046204
