19
Iteration:  3242
 C         0.212434        -0.348008        -0.989305
 C         1.509261        -0.094271        -0.242073
 C         2.483193         0.825437        -0.969158
 C         3.530317         0.924847         0.105966
 C         2.688133         0.823780         1.414602
 O         1.302816         0.599449         1.052447
 C         3.548036        -0.286777         0.955762
 O         4.780389        -0.705892         1.503865
 C         2.549826        -1.256223         0.197306
 H        -0.075755         0.684746        -1.160824
 H         0.314035        -0.953212        -1.935254
 H        -0.560118        -0.855647        -0.309347
 H         3.018358         0.500899        -1.916004
 H         2.029783         1.757117        -1.096940
 H         4.309667         1.604788        -0.005677
 H         2.981029         1.429940         2.245734
 H         4.722060        -0.592371         2.430893
 H         3.042969        -1.606926        -0.717174
 H         2.168118        -2.095664         0.817101
