19
Iteration:    84charge 0 multiplicity 1
 C         0.197267        -0.314311        -0.691003
 C         1.547290        -0.144084        -0.117334
 C         2.458611         0.610861        -1.075831
 C         3.515136         0.925747        -0.020074
 C         2.799931         0.950702         1.238592
 O         1.442752         0.782927         0.940535
 C         3.493877        -0.347227         0.901575
 O         4.691692        -0.631337         1.486982
 C         2.501994        -1.358229         0.371452
 H        -0.536512        -0.924586        -0.044252
 H        -0.285468         0.625143        -0.883709
 H         0.384682        -0.610020        -1.800272
 H         2.833932        -0.035766        -2.000081
 H         1.947276         1.425703        -1.544564
 H         4.447534         1.578075        -0.074366
 H         3.005344         1.415269         2.146635
 H         4.640443        -0.746896         2.490897
 H         2.827671        -1.799607        -0.619538
 H         1.956449        -1.987858         1.126125
