19
Iteration:   736
 C         0.150687        -0.614559        -0.628405
 C         1.505437        -0.078051        -0.198815
 C         2.483009         0.775809        -1.085787
 C         3.633149         0.921844        -0.047601
 C         2.773751         1.036282         1.248589
 O         1.366843         0.923642         0.872668
 C         3.557070        -0.233440         0.913559
 O         4.683014        -0.930572         1.535927
 C         2.531673        -1.195296         0.380498
 H        -0.019965        -1.381193         0.087679
 H        -0.525955         0.172867        -0.503015
 H         0.201008        -1.063684        -1.662254
 H         2.743701         0.324056        -1.985999
 H         2.199536         1.914890        -1.306046
 H         4.418747         1.701263        -0.093900
 H         3.025747         1.611328         2.156341
 H         4.193889        -1.657726         1.926178
 H         2.932044        -1.908692        -0.378523
 H         1.957367        -1.702708         1.158719
