19
Iteration:  1172charge 0 multiplicity 1
 C         0.109237        -0.602897        -0.695008
 C         1.495902        -0.062923        -0.172810
 C         2.438095         0.741384        -1.148643
 C         3.571537         0.904315        -0.008632
 C         2.822460         0.960149         1.289188
 O         1.431117         0.886700         1.017635
 C         3.557239        -0.284364         0.904012
 O         4.639091        -0.893284         1.659414
 C         2.548957        -1.114525         0.228175
 H        -0.601510        -0.910546         0.042550
 H        -0.274071         0.394982        -1.112033
 H         0.021838        -1.430907        -1.385399
 H         2.952057         0.127772        -1.893142
 H         1.881485         1.670729        -1.651179
 H         4.322732         1.780765        -0.154923
 H         3.035430         1.531862         2.151383
 H         5.368821        -0.790013         1.035143
 H         3.072535        -1.648891        -0.591225
 H         2.112282        -1.869444         0.910197
