19
Iteration:  2887charge 0 multiplicity 1
 C         0.320862        -0.608674        -0.898144
 C         1.556439        -0.025148        -0.224756
 C         2.492626         0.860690        -1.031518
 C         3.522168         1.032650         0.122852
 C         2.722482         0.970845         1.396472
 O         1.368768         0.750644         1.037839
 C         3.470819        -0.314986         0.916936
 O         4.659107        -0.886253         1.473333
 C         2.506670        -1.155931         0.272676
 H        -0.605408        -0.024012        -1.027593
 H         0.496872        -0.873776        -2.023827
 H         0.008942        -1.534361        -0.428197
 H         2.947224         0.272768        -1.882552
 H         2.037392         1.858235        -1.395948
 H         4.523502         1.570090        -0.106092
 H         2.979395         1.566787         2.247413
 H         4.535863        -1.100024         2.372872
 H         3.022500        -1.566920        -0.589774
 H         2.037704        -1.865774         0.932528
