19
Iteration:  2558
 C         0.130253        -0.306778        -0.934937
 C         1.586860        -0.162888        -0.263889
 C         2.507610         0.860957        -1.023051
 C         3.525963         0.971667         0.041022
 C         2.654730         0.805506         1.385216
 O         1.316379         0.542311         1.023062
 C         3.613907        -0.279870         0.951755
 O         4.735374        -0.715842         1.563323
 C         2.563573        -1.261838         0.254682
 H        -0.404128         0.622495        -1.006990
 H         0.307779        -0.769134        -1.954481
 H        -0.461210        -0.966112        -0.192531
 H         2.971604         0.448951        -1.870222
 H         2.101767         1.871322        -1.357307
 H         4.477922         1.645661         0.007308
 H         2.762291         1.345690         2.335164
 H         4.875834        -0.007503         2.179648
 H         3.031776        -1.834721        -0.575441
 H         2.050611        -1.870545         1.052373
