19
Iteration:  1032charge 0 multiplicity 1
 C         0.168077        -0.582328        -0.623800
 C         1.541766        -0.040534        -0.164734
 C         2.465899         0.770676        -1.119943
 C         3.594080         0.924174        -0.030680
 C         2.780295         0.941519         1.297710
 O         1.424596         0.870045         0.936674
 C         3.494942        -0.329603         0.893045
 O         4.666835        -0.744612         1.591066
 C         2.490240        -1.199843         0.247233
 H        -0.373678        -0.759011         0.328929
 H        -0.352540         0.231349        -1.244538
 H         0.299487        -1.554283        -1.076081
 H         2.786084         0.267964        -1.952601
 H         1.934349         1.725831        -1.438188
 H         4.544427         1.499287        -0.212155
 H         2.972087         1.495709         2.252004
 H         4.684148        -1.724284         1.556422
 H         3.045402        -1.677640        -0.521199
 H         2.111816        -2.064037         0.806837
