19
Iteration:  2629charge 0 multiplicity 1
 C         0.310767        -0.670281        -0.807764
 C         1.620669        -0.031680        -0.290789
 C         2.491985         0.946183        -1.031168
 C         3.504404         1.135618         0.042511
 C         2.741046         0.961506         1.366900
 O         1.395391         0.679463         0.993653
 C         3.518902        -0.274218         0.951665
 O         4.602691        -0.967131         1.508644
 C         2.427210        -1.190747         0.258453
 H        -0.584799        -0.059311        -0.446933
 H         0.394968        -0.493017        -1.831640
 H         0.225545        -1.700358        -0.612506
 H         3.059762         0.503887        -1.961857
 H         2.053998         1.884050        -1.342336
 H         4.462817         1.745465        -0.005953
 H         2.816754         1.561372         2.297408
 H         4.794483        -0.528166         2.309427
 H         2.998064        -1.778679        -0.488187
 H         1.962237        -1.811946         1.093412
