19
Iteration:  2033
 C         0.143326        -0.413602        -0.762899
 C         1.494085        -0.164969        -0.236921
 C         2.457141         0.852765        -0.967642
 C         3.552253         1.069335         0.077701
 C         2.831072         0.845528         1.344677
 O         1.450383         0.630581         1.023015
 C         3.574926        -0.326022         0.742536
 O         4.603321        -0.687672         1.697664
 C         2.504539        -1.271436         0.112232
 H        -0.094273        -1.595197        -0.772164
 H        -0.577546         0.166201        -0.123996
 H         0.054104        -0.063434        -1.792542
 H         2.984102         0.451050        -1.979258
 H         1.861210         1.661826        -1.334914
 H         4.414222         1.594383        -0.171973
 H         2.965098         1.070950         2.403459
 H         5.436151        -0.430075         1.266748
 H         2.795621        -1.870783        -0.760232
 H         2.149073        -1.928185         0.955626
