19
Iteration:  2368
 C         0.232792        -0.552518        -0.859057
 C         1.559127        -0.069750        -0.232807
 C         2.536825         0.819315        -1.046323
 C         3.530119         0.995612         0.100356
 C         2.683423         0.954910         1.405196
 O         1.335026         0.714927         0.998639
 C         3.537288        -0.258941         0.994086
 O         4.758109        -0.802466         1.472791
 C         2.507531        -1.188879         0.224797
 H        -0.775054        -0.053691        -0.503454
 H         0.200942        -0.478548        -1.980888
 H         0.033733        -1.578091        -0.585176
 H         2.869569         0.318998        -1.966318
 H         1.988167         1.743402        -1.449616
 H         4.439022         1.739877         0.066419
 H         2.779729         1.634805         2.256063
 H         4.466753        -1.526668         2.157172
 H         3.011463        -1.753133        -0.644672
 H         1.992888        -1.795627         1.002050
