19
Iteration:  2872
 C         0.148934        -0.564471        -0.940361
 C         1.481901        -0.069501        -0.225936
 C         2.564928         0.832971        -0.991482
 C         3.616977         0.928111         0.081734
 C         2.729268         0.969652         1.377002
 O         1.283272         0.684376         0.993687
 C         3.601905        -0.205900         1.001800
 O         4.756476        -0.850159         1.505988
 C         2.479054        -1.123735         0.222858
 H        -0.555813         0.159947        -0.667047
 H         0.367550        -0.596673        -1.962890
 H         0.006874        -1.641691        -0.644816
 H         2.827342         0.405663        -1.887666
 H         2.169451         1.829628        -1.232880
 H         4.501523         1.616123         0.114169
 H         2.713796         1.692491         2.206127
 H         4.499973        -1.156351         2.436501
 H         2.984132        -1.732683        -0.652076
 H         1.912484        -1.886025         0.916347
