19
Iteration:  4465charge 0 multiplicity 1
 C         0.081933        -0.416043        -0.716090
 C         1.611071        -0.021900        -0.316428
 C         2.603076         0.807354        -1.021612
 C         3.596392         0.925909         0.085154
 C         2.629208         0.886026         1.354490
 O         1.327581         0.670632         0.977391
 C         3.512853        -0.384274         0.879330
 O         4.709711        -0.637536         1.616170
 C         2.617933        -1.256175         0.125026
 H        -0.056306        -0.110182        -1.760178
 H        -0.106685        -1.543781        -0.634942
 H        -0.557552         0.034208         0.093671
 H         2.937834         0.337192        -2.020855
 H         2.242718         1.882818        -1.437323
 H         4.706325         1.211808         0.055348
 H         2.614343         1.483151         2.253288
 H         4.416388        -1.418384         2.069805
 H         2.980619        -1.873270        -0.740386
 H         1.937103        -1.774221         0.874601
