19
Iteration:  4042charge 0 multiplicity 1
 C         0.147614        -0.351022        -0.790370
 C         1.520652        -0.083726        -0.283576
 C         2.515898         0.973320        -1.006539
 C         3.501463         1.014234         0.219282
 C         2.702483         0.728961         1.426033
 O         1.327243         0.510183         1.002371
 C         3.591000        -0.299874         0.797715
 O         4.702833        -0.668888         1.562195
 C         2.674674        -1.254911         0.014623
 H        -0.498125         0.435410        -0.383453
 H        -0.054483        -0.589632        -1.833744
 H        -0.295942        -1.129783        -0.198845
 H         3.070274         0.363647        -1.858719
 H         2.104835         1.912555        -1.242474
 H         4.484198         1.647510         0.265543
 H         2.785473         1.063210         2.472509
 H         4.379323        -1.031662         2.380295
 H         3.108696        -1.682106        -0.870776
 H         2.129367        -1.932694         0.634283
