19
Iteration:  4441charge 0 multiplicity 1
 C         0.144581        -0.377103        -0.820486
 C         1.586756        -0.118821        -0.216998
 C         2.534652         0.821809        -1.038468
 C         3.526316         1.021450         0.006214
 C         2.807823         0.811789         1.295787
 O         1.394344         0.623709         0.972098
 C         3.543339        -0.367409         0.897870
 O         4.671517        -0.645568         1.668586
 C         2.475565        -1.243486         0.191537
 H         0.194390        -0.052529        -1.864217
 H        -0.161715        -1.458390        -0.744214
 H        -0.500568         0.154131        -0.158275
 H         2.770479         0.548771        -2.029217
 H         1.898982         1.834817        -1.238566
 H         4.411260         1.659624         0.071539
 H         2.952810         1.337116         2.278554
 H         4.330651        -1.301783         2.274002
 H         3.106478        -1.715707        -0.610108
 H         2.056935        -1.991755         0.912261
