19
Iteration:  1119
 C         0.108524        -0.437387        -0.802628
 C         1.495544        -0.070929        -0.210916
 C         2.532712         0.676149        -1.138308
 C         3.560870         0.883170        -0.028034
 C         2.789320         0.904653         1.370807
 O         1.398198         0.836330         1.021298
 C         3.546949        -0.298883         0.914871
 O         4.731149        -0.778618         1.531058
 C         2.439504        -1.238619         0.413940
 H        -0.245286        -1.377131        -0.323512
 H        -0.775933         0.301872        -0.702656
 H         0.082568        -0.667021        -1.830473
 H         2.936145         0.152849        -1.937536
 H         1.866901         1.579826        -1.537135
 H         4.495025         1.534411        -0.328217
 H         3.006682         1.602188         2.139165
 H         5.479167        -0.270661         1.239516
 H         2.922877        -1.959715        -0.213396
 H         2.018888        -1.595405         1.353887
