19
Iteration:  2910
 C         0.368429        -0.556794        -0.801326
 C         1.620613        -0.084105        -0.198827
 C         2.506782         0.874788        -0.987951
 C         3.567803         1.099445         0.080463
 C         2.710774         0.862507         1.407836
 O         1.333990         0.724350         0.990274
 C         3.511605        -0.291107         0.767757
 O         4.620351        -0.826644         1.488253
 C         2.469745        -1.232828         0.262719
 H        -0.209626         0.225918        -1.412160
 H         0.592938        -1.202656        -1.745306
 H        -0.350536        -1.066846        -0.212501
 H         2.963096         0.424788        -1.982512
 H         1.924414         1.809333        -1.151185
 H         4.341784         1.829971         0.147935
 H         3.023245         1.359530         2.339589
 H         4.218449        -1.006673         2.403954
 H         2.791387        -1.863269        -0.516616
 H         1.905581        -1.692797         1.029999
