19
Iteration:  2899charge 0 multiplicity 1
 C         0.403287        -0.610489        -0.857635
 C         1.585869        -0.087006        -0.196650
 C         2.512981         0.892383        -1.021777
 C         3.490541         1.084358         0.077430
 C         2.741891         0.875295         1.362423
 O         1.377032         0.802251         1.050131
 C         3.501309        -0.277644         0.914090
 O         4.574643        -0.851837         1.443401
 C         2.471553        -1.229225         0.227923
 H        -0.274031         0.328160        -0.940497
 H         0.866731        -1.089565        -1.806667
 H        -0.041231        -1.343248        -0.209863
 H         2.987503         0.375973        -1.986463
 H         1.914586         1.769521        -1.409703
 H         4.354022         1.746947         0.136753
 H         2.872620         1.335137         2.345309
 H         4.401299        -1.081374         2.420878
 H         2.731251        -1.915824        -0.528877
 H         2.006069        -1.856307         0.938454
