19
Iteration:  4681
 C         0.225363        -0.369117        -0.857030
 C         1.562886        -0.080735        -0.228487
 C         2.581610         0.786933        -0.955745
 C         3.530325         1.158092         0.216882
 C         2.622284         0.958644         1.368890
 O         1.250570         0.641576         0.968437
 C         3.612992        -0.340684         0.864830
 O         4.758328        -0.878247         1.347740
 C         2.525891        -1.298884         0.339967
 H         0.052734        -1.439462        -0.837303
 H        -0.639305         0.124500        -0.320840
 H         0.198225        -0.097398        -1.940257
 H         2.867550         0.389826        -1.882235
 H         2.074007         1.752059        -1.379368
 H         4.449210         1.603107         0.325469
 H         2.598605         1.652023         2.240179
 H         4.887257        -0.777453         2.317477
 H         2.814455        -1.820019        -0.619359
 H         2.156876        -2.133051         0.969190
