19
Iteration:  2906charge 0 multiplicity 1
 C         0.401019        -0.580046        -0.813487
 C         1.624765        -0.096494        -0.194472
 C         2.518036         0.868911        -1.009123
 C         3.532844         1.100284         0.053084
 C         2.728535         0.859558         1.403574
 O         1.342248         0.762637         1.011213
 C         3.499191        -0.278636         0.814028
 O         4.598087        -0.837012         1.471337
 C         2.466307        -1.225612         0.243554
 H        -0.185173         0.178729        -1.205240
 H         0.725394        -1.075718        -1.746258
 H        -0.342338        -1.128374        -0.178124
 H         2.929753         0.469451        -1.829284
 H         1.902298         1.817374        -1.190240
 H         4.405021         1.922914         0.258695
 H         2.968481         1.319725         2.336099
 H         4.251876        -0.997562         2.343609
 H         2.756323        -2.030617        -0.591573
 H         1.833334        -1.816514         1.039006
