19
Iteration:   160charge 0 multiplicity 1
 C         0.143033        -0.629506        -0.687508
 C         1.495488        -0.116848        -0.138442
 C         2.528673         0.694821        -1.064041
 C         3.628263         0.999273        -0.007398
 C         2.790303         1.059180         1.264233
 O         1.412257         0.899941         0.967841
 C         3.534936        -0.170385         0.924567
 O         4.599614        -0.931923         1.436502
 C         2.541596        -1.149647         0.331889
 H        -0.712135        -0.554209         0.115003
 H        -0.204575        -0.037245        -1.527633
 H         0.225463        -1.772181        -1.018933
 H         2.861892         0.052008        -1.981039
 H         2.100492         1.614422        -1.417886
 H         4.489883         1.622421        -0.206915
 H         2.954550         1.662738         2.175918
 H         4.299339        -1.497440         2.130410
 H         3.137619        -1.709942        -0.480102
 H         2.248684        -1.857879         1.186152
