19
Iteration:  3872
 C         0.208840        -0.487901        -0.861951
 C         1.554527        -0.086013        -0.207755
 C         2.460848         0.962402        -0.946912
 C         3.516031         1.109179         0.171076
 C         2.736050         0.817863         1.407648
 O         1.296126         0.632740         1.060292
 C         3.551924        -0.314394         0.813582
 O         4.699586        -0.837862         1.529013
 C         2.656733        -1.218830         0.013180
 H        -0.292255         0.149025        -1.627287
 H         0.356158        -1.506018        -1.282595
 H        -0.425073        -0.613955         0.118583
 H         2.859687         0.466295        -1.894353
 H         1.911996         2.035818        -1.098484
 H         4.424084         1.848591         0.195647
 H         2.971521         1.159195         2.361659
 H         4.413947        -0.915935         2.412254
 H         3.040597        -1.461990        -0.998417
 H         2.127017        -2.026999         0.645506
