19
Iteration:  3186charge 0 multiplicity 1
 C         0.204432        -0.604489        -0.813796
 C         1.481148         0.048022        -0.246351
 C         2.547725         0.945363        -1.098350
 C         3.621116         1.038161         0.205320
 C         2.713609         0.886378         1.367734
 O         1.309067         0.622405         1.057416
 C         3.542532        -0.248078         0.889853
 O         4.664353        -0.829615         1.542038
 C         2.574008        -1.189598         0.125836
 H        -0.176156         0.026298        -1.687364
 H         0.475173        -1.483976        -1.321337
 H        -0.634568        -0.692262        -0.041880
 H         3.083383         0.417062        -1.969617
 H         2.184869         1.824240        -1.434840
 H         4.369657         1.746912         0.289886
 H         2.888689         1.512942         2.272587
 H         4.432052        -1.670066         2.042719
 H         3.043427        -1.653131        -0.732765
 H         2.079562        -1.974481         0.760959
