19
Iteration:  3876charge 0 multiplicity 1
 C         0.175367        -0.485328        -0.845534
 C         1.551685        -0.062799        -0.227393
 C         2.459828         1.017471        -0.959425
 C         3.529248         1.100717         0.161358
 C         2.722774         0.839740         1.410885
 O         1.312995         0.588795         1.054668
 C         3.590384        -0.351653         0.804031
 O         4.688459        -0.818844         1.542214
 C         2.652541        -1.247658         0.034462
 H        -0.207902         0.322586        -1.510083
 H         0.443945        -1.482590        -1.225770
 H        -0.489960        -0.573088         0.003760
 H         2.771069         0.395692        -1.890288
 H         1.949548         1.938024        -1.132004
 H         4.253964         1.823052         0.077717
 H         2.946988         1.318681         2.429165
 H         4.315637        -1.008035         2.482762
 H         3.119027        -1.451268        -0.937384
 H         2.231474        -2.089225         0.539288
