19
Iteration:  4354
 C         0.237948        -0.480309        -0.825385
 C         1.543116        -0.065286        -0.243710
 C         2.558813         0.897037        -0.991415
 C         3.562633         0.990641         0.121876
 C         2.632365         0.873963         1.407324
 O         1.331621         0.670590         0.991347
 C         3.524313        -0.263897         0.838454
 O         4.657235        -0.864505         1.542823
 C         2.556792        -1.190628         0.200340
 H         0.254671        -1.578445        -1.075927
 H        -0.568935        -0.453473        -0.035786
 H        -0.076818         0.062866        -1.699623
 H         2.936597         0.432373        -1.878767
 H         2.137224         1.951575        -1.362531
 H         4.313202         1.658961         0.303004
 H         2.637206         1.361113         2.366993
 H         5.482859        -0.431848         1.215616
 H         2.942903        -1.906350        -0.532761
 H         2.259461        -1.892988         0.994031
