19
Iteration:  4160
 C         0.185019        -0.344681        -0.788153
 C         1.575069        -0.105814        -0.319214
 C         2.502324         0.954678        -0.939668
 C         3.474634         1.100226         0.203198
 C         2.622134         0.779419         1.456409
 O         1.341887         0.432922         1.035540
 C         3.595809        -0.303181         0.837646
 O         4.765516        -0.719838         1.523002
 C         2.600700        -1.184526        -0.002585
 H        -0.474025         0.576028        -0.929247
 H         0.159575        -1.078247        -1.666594
 H        -0.395038        -0.898467        -0.048909
 H         3.033068         0.528509        -1.887515
 H         2.064033         1.888828        -1.184580
 H         4.455373         1.614012         0.125251
 H         2.611824         1.456802         2.351652
 H         4.432658        -1.361197         2.243271
 H         3.133092        -1.563801        -0.929688
 H         2.134542        -2.086342         0.546939
