19
Iteration:  1770
 C         0.110732        -0.352908        -0.683756
 C         1.580604        -0.177797        -0.260457
 C         2.453110         0.765722        -1.030639
 C         3.577570         0.907843         0.025243
 C         2.748984         0.953763         1.351642
 O         1.435102         0.710657         0.910279
 C         3.530938        -0.318684         0.898951
 O         4.640479        -0.765629         1.586081
 C         2.570163        -1.281914         0.186685
 H        -0.139189        -1.312747        -0.116737
 H        -0.441626         0.436385        -0.072925
 H        -0.092147        -0.396942        -1.699424
 H         2.630913         0.363918        -2.130751
 H         1.880500         1.674389        -1.131563
 H         4.385822         1.524702        -0.046418
 H         2.910558         1.524210         2.260123
 H         5.129107         0.085601         1.800457
 H         3.081121        -1.768015        -0.648254
 H         2.119582        -1.969531         0.916046
