19
Iteration:  4878charge 0 multiplicity 1
 C         0.159325        -0.410316        -0.702134
 C         1.574114        -0.100375        -0.257114
 C         2.498146         0.814250        -1.051636
 C         3.500685         1.094494         0.074223
 C         2.772610         0.844417         1.342243
 O         1.399179         0.656490         0.985017
 C         3.576405        -0.291135         0.853226
 O         4.646863        -0.831704         1.636181
 C         2.583288        -1.175324         0.055450
 H        -0.165909        -1.391267        -0.259371
 H        -0.391119         0.413235        -0.270237
 H        -0.001710        -0.700524        -1.789945
 H         3.102377         0.260862        -1.870824
 H         2.011696         1.768933        -1.273908
 H         4.479281         1.546472        -0.163059
 H         2.791505         1.268957         2.281434
 H         4.136045        -0.977468         2.516553
 H         2.880603        -1.786785        -0.795470
 H         1.988854        -1.668143         0.840144
