19
Iteration:  4618
 C         0.222002        -0.466053        -0.838133
 C         1.569338        -0.078827        -0.203620
 C         2.462846         0.820530        -1.009395
 C         3.554869         0.985455         0.099426
 C         2.700952         0.887303         1.349304
 O         1.349096         0.707085         1.016851
 C         3.599164        -0.319917         0.788132
 O         4.647494        -0.779738         1.614005
 C         2.579536        -1.190036         0.206287
 H         0.195108        -1.284121        -1.573956
 H        -0.405572        -0.647126         0.040876
 H        -0.109472         0.432906        -1.433958
 H         2.896901         0.416854        -1.892785
 H         1.994002         1.876713        -1.065852
 H         4.217483         1.756268        -0.081733
 H         3.026860         1.535270         2.167979
 H         4.524293        -1.716971         1.771255
 H         2.996267        -1.729319        -0.678774
 H         1.993115        -1.895058         0.882566
