19
Iteration:   220
 C         0.096765        -0.368427        -0.761432
 C         1.498013        -0.177380        -0.135891
 C         2.500591         0.653410        -1.054422
 C         3.576795         0.884379        -0.033800
 C         2.808621         1.003540         1.244061
 O         1.456251         0.767650         0.931234
 C         3.515907        -0.346750         0.849636
 O         4.738569        -0.640198         1.548760
 C         2.439660        -1.315924         0.396464
 H        -0.495379        -1.020837        -0.190854
 H        -0.406369         0.668164        -0.808793
 H         0.174838        -0.705164        -1.760173
 H         2.861764         0.239777        -1.989276
 H         2.058801         1.714774        -1.279945
 H         4.657644         1.391381        -0.141447
 H         2.972055         1.634436         2.070415
 H         4.515025        -0.835918         2.473011
 H         2.753335        -1.935411        -0.392298
 H         2.097788        -1.940501         1.207752
