19
Iteration:  1887
 C         0.160888        -0.332634        -0.739072
 C         1.560043        -0.086789        -0.196204
 C         2.504203         0.806902        -1.065902
 C         3.459347         1.050151         0.012876
 C         2.737640         0.829501         1.354071
 O         1.404278         0.565700         1.105714
 C         3.578771        -0.311395         0.859485
 O         4.663426        -0.766864         1.547493
 C         2.541842        -1.247968         0.117257
 H        -0.572616        -0.273153         0.092073
 H        -0.121866         0.407151        -1.584588
 H         0.015463        -1.425989        -1.104784
 H         2.974596         0.200663        -1.790409
 H         2.024429         1.687757        -1.666837
 H         4.314774         1.619021        -0.019621
 H         3.004251         1.456669         2.219236
 H         5.080399        -0.052875         2.029166
 H         3.001215        -1.777435        -0.761812
 H         2.218966        -1.882436         0.958140
