19
Iteration:  2216
 C         0.297957        -0.567747        -0.839564
 C         1.549749        -0.080000        -0.188342
 C         2.431011         0.867364        -0.968921
 C         3.525912         0.985438         0.057218
 C         2.714702         0.893160         1.332415
 O         1.329184         0.807825         0.996498
 C         3.545645        -0.277499         0.933839
 O         4.637060        -0.902111         1.548224
 C         2.576211        -1.196501         0.210374
 H         0.348712        -0.454224        -1.962376
 H         0.151401        -1.592960        -0.588344
 H        -0.577183        -0.096463        -0.514709
 H         2.764459         0.476084        -1.907745
 H         1.786352         1.940132        -1.062592
 H         4.299032         1.705527         0.026989
 H         3.030648         1.360437         2.264096
 H         5.451941        -0.347111         1.230741
 H         2.925665        -1.785774        -0.710785
 H         2.195928        -1.947159         0.999527
