19
Iteration:  1760charge 0 multiplicity 1
 C         0.048483        -0.383292        -0.651823
 C         1.494161        -0.116729        -0.270432
 C         2.523070         0.738163        -1.059733
 C         3.624392         0.929776         0.039161
 C         2.758607         0.908920         1.277094
 O         1.422363         0.693401         1.004780
 C         3.521236        -0.298269         0.946574
 O         4.683545        -0.721180         1.572145
 C         2.532636        -1.281584         0.153831
 H        -0.369177        -1.354411        -0.184364
 H        -0.672538         0.470446        -0.439056
 H         0.032969        -0.529249        -1.677367
 H         3.052704         0.362285        -2.042204
 H         2.110096         1.671181        -1.231641
 H         4.534088         1.393255        -0.173760
 H         2.906735         1.491411         2.179638
 H         5.030590         0.076107         2.116219
 H         2.955511        -1.672967        -0.757826
 H         2.230640        -2.189196         0.693579
