19
Iteration:  2752charge 0 multiplicity 1
 C         0.308708        -0.631283        -0.858359
 C         1.538183        -0.029605        -0.216969
 C         2.574623         0.896085        -1.033972
 C         3.579558         1.088948         0.126001
 C         2.686612         0.906710         1.368239
 O         1.321283         0.678987         1.046399
 C         3.543462        -0.286297         0.866483
 O         4.649777        -0.847404         1.460124
 C         2.448247        -1.117627         0.227124
 H        -0.104414        -0.028728        -1.608487
 H         0.606170        -1.599220        -1.122111
 H        -0.329110        -0.911947         0.027583
 H         2.963426         0.314264        -1.831087
 H         2.197910         1.903119        -1.477157
 H         4.442775         1.632729         0.137883
 H         2.903493         1.371786         2.328166
 H         4.340969        -1.207092         2.298935
 H         2.934818        -1.698732        -0.614013
 H         1.889198        -1.756576         0.938222
