19
Iteration:  2641
 C         0.373312        -0.542779        -0.840776
 C         1.592052        -0.114451        -0.182457
 C         2.488801         0.911589        -1.035303
 C         3.502401         1.031558         0.084805
 C         2.730991         0.932931         1.368450
 O         1.333451         0.737446         0.954836
 C         3.461185        -0.280098         0.923854
 O         4.587954        -0.896514         1.464140
 C         2.601223        -1.203226         0.293060
 H        -0.549923         0.053816        -0.461571
 H         0.339943        -0.528917        -1.881617
 H         0.140879        -1.570065        -0.508866
 H         2.766087         0.431580        -2.056236
 H         1.877214         1.838477        -1.172240
 H         4.573501         1.551272        -0.037905
 H         2.854278         1.463859         2.324293
 H         4.847351        -0.557064         2.355438
 H         3.022663        -1.841541        -0.516668
 H         1.920478        -1.880989         0.837089
