19
Iteration:  4472
 C         0.097565        -0.442338        -0.719323
 C         1.535521        -0.060003        -0.253865
 C         2.677229         0.825189        -1.061461
 C         3.553839         0.952589         0.121105
 C         2.706153         0.861713         1.348350
 O         1.306560         0.681999         0.917153
 C         3.530528        -0.341034         0.924039
 O         4.700167        -0.673401         1.568083
 C         2.540934        -1.204524         0.148167
 H        -0.131337        -0.110442        -1.742726
 H         0.028160        -1.526981        -0.671731
 H        -0.517764         0.050272        -0.017584
 H         2.965039         0.277829        -1.894360
 H         2.201773         1.767214        -1.371234
 H         4.561328         1.396718         0.118848
 H         2.829061         1.424263         2.317852
 H         4.561181        -1.443619         2.197716
 H         3.131616        -1.790849        -0.592573
 H         2.098349        -2.030283         0.732424
