19
Iteration:   668charge 0 multiplicity 1
 C         0.154192        -0.287156        -0.764826
 C         1.556037        -0.187032        -0.200563
 C         2.500512         0.663481        -1.027331
 C         3.582949         0.823956        -0.062846
 C         2.726673         0.916532         1.267482
 O         1.339965         0.796076         0.906289
 C         3.644043        -0.347354         0.928130
 O         4.837981        -0.601123         1.530056
 C         2.318319        -1.364688         0.399939
 H        -0.449387        -1.118722        -0.274120
 H        -0.231490         0.679764        -0.586559
 H         0.156014        -0.340233        -1.875861
 H         2.540298         0.039408        -1.941996
 H         1.934608         1.713358        -1.177225
 H         4.371591         1.546435        -0.206070
 H         3.091492         1.602280         2.037621
 H         4.857707        -0.523851         2.492896
 H         2.675307        -2.207520        -0.288519
 H         1.958644        -1.880012         1.279613
