19
Iteration:  3999charge 0 multiplicity 1
 C         0.217606        -0.510121        -0.886568
 C         1.603874        -0.041482        -0.253981
 C         2.399594         0.975569        -0.938401
 C         3.503670         1.058378         0.187923
 C         2.698565         0.855026         1.401983
 O         1.324941         0.638903         1.055037
 C         3.557987        -0.313024         0.806228
 O         4.708132        -0.827190         1.503593
 C         2.636741        -1.212006         0.140851
 H        -0.634638         0.040487        -0.423132
 H         0.397147        -0.203180        -1.930245
 H         0.098476        -1.579711        -0.959437
 H         2.878782         0.556728        -1.910972
 H         1.887950         1.899286        -1.079019
 H         4.475866         1.700149         0.044025
 H         2.859445         1.277750         2.364319
 H         4.378334        -1.530631         2.129746
 H         3.028496        -1.829327        -0.658208
 H         2.222148        -1.822672         0.918167
