19
Iteration:   465charge 0 multiplicity 1
 C         0.249940        -0.622542        -0.637508
 C         1.544300        -0.032183        -0.107374
 C         2.536793         0.735305        -1.074404
 C         3.584852         0.961362        -0.080574
 C         2.812858         1.000834         1.209494
 O         1.398693         0.949612         0.900207
 C         3.494961        -0.319223         0.851169
 O         4.634834        -0.878761         1.513256
 C         2.400668        -1.173039         0.412822
 H         0.078080        -1.566576        -0.076740
 H        -0.557640        -0.000631        -0.395387
 H         0.419997        -0.988182        -1.729752
 H         2.864081         0.021192        -1.930992
 H         2.064647         1.618915        -1.540310
 H         4.602193         1.524188        -0.163449
 H         3.150943         1.517519         2.148584
 H         4.324428        -1.188843         2.417587
 H         2.632819        -1.704956        -0.517181
 H         1.929750        -1.717202         1.209754
