19
Iteration:  4416
 C         0.262164        -0.448751        -0.964161
 C         1.538443        -0.117372        -0.198661
 C         2.459751         0.828051        -1.015963
 C         3.555131         0.991712         0.018024
 C         2.784906         0.941693         1.396407
 O         1.306846         0.678639         1.093368
 C         3.603392        -0.227378         0.869914
 O         4.681652        -0.851535         1.531615
 C         2.472305        -1.248495         0.238377
 H         0.365503        -0.378006        -2.047739
 H        -0.076827        -1.385790        -0.645413
 H        -0.486696         0.225788        -0.543435
 H         2.819876         0.227421        -1.832616
 H         2.067440         1.721428        -1.421138
 H         4.243780         1.789626        -0.096910
 H         2.952079         1.486721         2.303944
 H         4.471999        -0.677099         2.504424
 H         3.001727        -1.817532        -0.533837
 H         2.248882        -1.821195         1.114300
