19
Iteration:  3098
 C         0.194660        -0.289965        -0.891066
 C         1.548333        -0.164442        -0.239593
 C         2.473760         0.779735        -1.002827
 C         3.466133         1.020469         0.090443
 C         2.697770         0.837886         1.404228
 O         1.380612         0.664867         1.000501
 C         3.490317        -0.407596         0.876258
 O         4.727476        -0.617821         1.558269
 C         2.607456        -1.337800         0.228706
 H        -0.433816         0.712721        -0.642341
 H         0.391347        -0.051518        -1.911461
 H        -0.254839        -1.333854        -0.686193
 H         3.066112         0.202437        -1.890052
 H         2.104352         1.710244        -1.305163
 H         4.560895         1.484508        -0.107377
 H         2.699318         1.325963         2.378552
 H         4.512124        -1.017307         2.427077
 H         3.081043        -1.583675        -0.693061
 H         2.338313        -2.218895         0.826340
