19
Iteration:  1847
 C         0.279117        -0.496263        -0.760798
 C         1.539649        -0.074840        -0.194929
 C         2.433393         0.863907        -0.959381
 C         3.532258         0.948708         0.104148
 C         2.701422         0.928560         1.348833
 O         1.327509         0.769473         0.957592
 C         3.555191        -0.347815         0.871583
 O         4.794521        -0.757024         1.384517
 C         2.486591        -1.269094         0.324034
 H        -0.300868        -1.044579         0.021163
 H        -0.092628         0.453215        -1.161083
 H         0.409545        -1.189050        -1.505604
 H         2.784670         0.389020        -1.987172
 H         1.981109         1.781266        -1.235202
 H         4.393992         1.653733        -0.022068
 H         2.856292         1.676395         2.144834
 H         4.538903        -1.602941         1.876053
 H         2.790997        -1.862863        -0.546320
 H         1.895324        -1.843286         1.065201
