19
Iteration:  4973
 C         0.164289        -0.231631        -0.894267
 C         1.521924        -0.169997        -0.239028
 C         2.503464         0.772449        -1.067192
 C         3.550252         0.950490        -0.008564
 C         2.736009         0.965607         1.396077
 O         1.377396         0.615515         1.030834
 C         3.518575        -0.296786         0.992261
 O         4.769417        -0.697107         1.507771
 C         2.475785        -1.387743         0.301646
 H        -0.212278        -1.200950        -0.677052
 H        -0.504663         0.463990        -0.395114
 H         0.036462        -0.259155        -1.995499
 H         2.912514         0.079875        -1.909601
 H         2.117011         1.698218        -1.404297
 H         4.437354         1.645235        -0.314046
 H         2.971174         1.611575         2.197341
 H         4.724063        -0.748677         2.448902
 H         3.023974        -1.979088        -0.500030
 H         2.041423        -1.993937         1.089644
