19
Iteration:  4948
 C         0.276864        -0.422031        -0.932359
 C         1.485469        -0.119036        -0.125079
 C         2.527312         0.748409        -1.051805
 C         3.545296         0.982994         0.022036
 C         2.714330         0.834475         1.370912
 O         1.392235         0.720908         1.077023
 C         3.538128        -0.337635         0.895881
 O         4.749075        -0.708279         1.430836
 C         2.407918        -1.192056         0.377439
 H        -0.040756        -1.424236        -1.238903
 H        -0.643636         0.172285        -0.655884
 H         0.600267        -0.102445        -1.911995
 H         2.814152         0.299840        -1.938331
 H         1.936322         1.734324        -1.281225
 H         4.495030         1.602532        -0.118379
 H         2.980517         1.578927         2.150505
 H         4.620932        -1.261168         2.250027
 H         2.490101        -1.871956        -0.485554
 H         2.083338        -1.628420         1.351321
