19
Iteration:  3265
 C         0.260018        -0.431847        -0.955688
 C         1.525407        -0.007354        -0.207288
 C         2.550548         0.871471        -1.030438
 C         3.502570         1.061155         0.122758
 C         2.677735         0.838863         1.400227
 O         1.381364         0.568693         1.074539
 C         3.509614        -0.274030         0.892823
 O         4.748681        -0.766129         1.475036
 C         2.459474        -1.260332         0.237880
 H        -0.456738         0.345831        -0.887490
 H         0.564713        -0.606888        -2.075906
 H        -0.127452        -1.428264        -0.611899
 H         2.976067         0.208471        -1.840334
 H         2.003436         1.721268        -1.442867
 H         4.480111         1.652517         0.250888
 H         2.858260         1.376229         2.322681
 H         4.681818        -0.762901         2.499165
 H         2.758714        -1.900413        -0.595254
 H         1.894735        -1.779950         0.993296
