19
Iteration:   859
 C         0.133062        -0.628053        -0.686940
 C         1.461563        -0.011503        -0.136290
 C         2.550966         0.723376        -1.075255
 C         3.545187         1.005704        -0.018919
 C         2.787577         0.961588         1.272811
 O         1.477411         0.943107         0.971187
 C         3.477423        -0.331477         0.867338
 O         4.720807        -0.809129         1.537396
 C         2.443188        -1.227467         0.261039
 H        -0.211616        -1.220403         0.122840
 H        -0.635068         0.169287        -0.934889
 H         0.387645        -1.205394        -1.465468
 H         2.860152        -0.007611        -1.877783
 H         2.052316         1.621564        -1.447275
 H         4.509343         1.340599        -0.115838
 H         2.988409         1.746149         2.021770
 H         4.543756        -1.613393         2.101055
 H         2.979456        -1.679955        -0.504700
 H         2.106678        -1.942180         1.083103
