19
Iteration:  2615
 C         0.214329        -0.650617        -0.870002
 C         1.506035        -0.068959        -0.267809
 C         2.555583         0.923428        -1.077744
 C         3.584341         1.114065         0.136373
 C         2.734795         0.922790         1.340917
 O         1.372424         0.680245         1.049534
 C         3.591114        -0.243485         0.859653
 O         4.606044        -0.971899         1.561698
 C         2.537649        -1.073045         0.234127
 H        -0.623595        -0.238564        -0.458281
 H         0.002536        -0.844056        -1.955810
 H         0.245163        -1.707969        -0.638200
 H         2.963228         0.390101        -1.945312
 H         1.993913         1.766195        -1.365571
 H         4.256436         1.847313         0.140140
 H         2.931667         1.546119         2.205140
 H         4.910178        -0.481743         2.387259
 H         2.688742        -1.852459        -0.513585
 H         1.829645        -1.607946         1.026132
