19
Iteration:  2246charge 0 multiplicity 1
 C         0.239370        -0.505432        -0.943938
 C         1.577807        -0.069202        -0.239631
 C         2.515437         0.868818        -1.003818
 C         3.497143         1.032018         0.099381
 C         2.763474         0.877971         1.378997
 O         1.385791         0.586750         1.044168
 C         3.524664        -0.240391         0.923670
 O         4.712400        -0.720020         1.473471
 C         2.438360        -1.155717         0.343796
 H         0.064701        -0.233498        -1.946977
 H         0.152248        -1.627024        -0.935147
 H        -0.625061        -0.228879        -0.353890
 H         2.985902         0.342562        -1.835306
 H         2.142049         1.686155        -1.484961
 H         4.327059         1.620913         0.085986
 H         2.929263         1.361959         2.357087
 H         4.650898        -1.632367         1.219025
 H         2.685027        -1.975023        -0.334802
 H         1.982469        -1.628267         1.178228
