19
Iteration:  2606charge 0 multiplicity 1
 C         0.177951        -0.649623        -0.871868
 C         1.544500        -0.025810        -0.238356
 C         2.547701         0.873841        -1.025215
 C         3.567330         1.074952         0.059642
 C         2.726809         0.881373         1.365791
 O         1.292533         0.706321         1.034821
 C         3.652677        -0.222515         0.842374
 O         4.591734        -0.941187         1.565699
 C         2.564776        -1.108717         0.204944
 H        -0.661242        -0.105396        -0.432487
 H         0.128161        -0.588835        -1.956822
 H         0.117061        -1.632022        -0.545645
 H         2.919068         0.307468        -1.984237
 H         2.282576         1.850917        -1.291172
 H         4.349009         1.731783         0.229508
 H         2.879193         1.349012         2.344477
 H         4.822805        -0.323685         2.319362
 H         2.997210        -1.780993        -0.567165
 H         2.169448        -1.692978         1.153032
