19
Iteration:  2969
 C         0.168072        -0.311660        -0.870552
 C         1.591293        -0.142959        -0.197738
 C         2.557603         0.794645        -0.950167
 C         3.534793         1.002851         0.141170
 C         2.658462         0.795432         1.390001
 O         1.330086         0.615766         0.997304
 C         3.470064        -0.317006         0.798664
 O         4.704273        -0.591132         1.523091
 C         2.625300        -1.302364         0.169799
 H         0.183285         0.533643        -1.587554
 H         0.043335        -1.307471        -1.184733
 H        -0.662536         0.006598        -0.077124
 H         3.093487         0.179101        -1.801792
 H         2.095420         1.601723        -1.516772
 H         4.549373         1.645225         0.003128
 H         2.940613         1.020816         2.378925
 H         4.465728        -1.141038         2.302002
 H         2.951684        -2.023459        -0.596246
 H         2.059539        -1.889824         0.906550
