19
Iteration:  4154
 C         0.171464        -0.399606        -0.821744
 C         1.596825        -0.063679        -0.315726
 C         2.495468         0.982181        -0.919567
 C         3.525678         1.060662         0.221528
 C         2.607030         0.813903         1.391737
 O         1.327607         0.426024         1.044701
 C         3.608264        -0.322935         0.875096
 O         4.746411        -0.717111         1.476281
 C         2.587043        -1.200663         0.038208
 H        -0.358622         0.489087        -1.055588
 H         0.027030        -1.078728        -1.611214
 H        -0.305160        -0.755182         0.133056
 H         3.089719         0.575617        -1.724365
 H         2.065849         1.987801        -1.180976
 H         4.340600         1.776079         0.289037
 H         2.605484         1.394002         2.281878
 H         4.489868        -1.455225         2.065913
 H         3.130198        -1.491063        -0.830125
 H         2.170078        -1.987163         0.588222
