19
Iteration:  2828
 C         0.201218        -0.296832        -0.855895
 C         1.605611        -0.162698        -0.255899
 C         2.561398         0.699587        -1.043326
 C         3.581012         1.034365         0.074484
 C         2.688995         0.793536         1.404102
 O         1.417713         0.597082         1.007615
 C         3.463458        -0.314724         0.865284
 O         4.638493        -0.548606         1.572572
 C         2.510240        -1.264130         0.206472
 H        -0.272290         0.525542        -0.335267
 H         0.241655        -0.101460        -1.852606
 H        -0.319394        -1.269451        -0.620008
 H         2.988252         0.196590        -1.841438
 H         2.015506         1.561300        -1.470549
 H         4.426406         1.620397        -0.053421
 H         2.864927         1.251274         2.417271
 H         4.418029        -1.114753         2.401993
 H         2.818680        -1.986558        -0.662377
 H         2.115771        -2.080501         0.917939
