19
Iteration:  3713
 C         0.319189        -0.565139        -0.907043
 C         1.542072        -0.008739        -0.225397
 C         2.496185         0.944198        -1.025117
 C         3.499459         1.061170         0.115694
 C         2.737167         0.923251         1.436044
 O         1.332233         0.604384         1.109998
 C         3.494901        -0.287295         0.904578
 O         4.669270        -0.901046         1.442553
 C         2.516468        -1.146768         0.158086
 H        -0.429799         0.283003        -1.063992
 H         0.574558        -1.096579        -1.947170
 H        -0.255627        -1.196652        -0.176444
 H         2.997258         0.286704        -1.826124
 H         2.165160         1.955396        -1.368986
 H         4.416292         1.813543         0.011787
 H         2.965136         1.293727         2.391252
 H         4.505922        -0.843581         2.362654
 H         3.107987        -1.639029        -0.648940
 H         2.196334        -1.918316         0.871865
