19
Iteration:  2870
 C         0.152900        -0.551479        -0.938092
 C         1.478124        -0.088695        -0.221694
 C         2.567585         0.845381        -0.997394
 C         3.639189         0.933458         0.092472
 C         2.714096         0.954673         1.358506
 O         1.282181         0.680916         0.993021
 C         3.604495        -0.217852         1.002293
 O         4.758291        -0.834110         1.519103
 C         2.477793        -1.139423         0.220871
 H        -0.598496         0.261827        -0.611306
 H         0.252799        -0.568813        -1.979021
 H         0.005465        -1.603565        -0.677811
 H         2.850158         0.384084        -1.987665
 H         2.202312         1.774096        -1.203940
 H         4.375523         1.604963         0.079144
 H         2.708916         1.703327         2.197404
 H         4.579815        -1.181888         2.377864
 H         2.958055        -1.689898        -0.638741
 H         1.947628        -1.823373         0.975317
