19
Iteration:  1626
 C         0.109650        -0.319818        -0.640644
 C         1.561593        -0.124336        -0.212077
 C         2.407413         0.764321        -1.144998
 C         3.534703         0.901241        -0.068955
 C         2.745151         0.932628         1.216041
 O         1.394993         0.665883         0.960863
 C         3.643644        -0.261334         0.959082
 O         4.752973        -0.838967         1.667400
 C         2.518050        -1.261134         0.241881
 H        -0.485319        -0.768681         0.117591
 H        -0.491953         0.627883        -0.784865
 H         0.169126        -0.917251        -1.624924
 H         2.490093         0.276321        -2.131024
 H         1.873527         1.733663        -1.231491
 H         4.543071         1.504968        -0.105332
 H         2.784994         1.746431         1.939425
 H         5.115465        -0.121634         2.308599
 H         2.922028        -1.709021        -0.712466
 H         2.013016        -1.951002         0.897834
