19
Iteration:  3690charge 0 multiplicity 1
 C         0.344944        -0.532325        -1.002022
 C         1.558604        -0.062602        -0.243980
 C         2.490283         0.930971        -0.947272
 C         3.509921         1.040342         0.136610
 C         2.670353         0.839702         1.410401
 O         1.354577         0.657247         1.147292
 C         3.542353        -0.255576         0.905813
 O         4.748128        -0.858517         1.363915
 C         2.428964        -1.173418         0.242524
 H        -0.180708         0.206469        -1.667544
 H         0.617326        -1.449227        -1.720988
 H        -0.599410        -0.833054        -0.388263
 H         2.885777         0.503464        -1.965443
 H         1.874594         1.821523        -1.008545
 H         4.428256         1.731311         0.250501
 H         2.906794         1.453045         2.285181
 H         4.609348        -0.812064         2.380918
 H         2.866632        -1.873871        -0.500045
 H         1.943403        -1.731792         1.057452
