19
Iteration:  4853
 C         0.179898        -0.333985        -0.891821
 C         1.508485        -0.072861        -0.175057
 C         2.441557         0.935241        -1.021936
 C         3.578969         0.937926         0.027366
 C         2.780676         0.797370         1.245100
 O         1.389658         0.606780         1.127889
 C         3.549776        -0.372067         0.871061
 O         4.666224        -0.683862         1.589223
 C         2.573230        -1.309179         0.176972
 H        -0.469400        -0.938754        -0.291705
 H        -0.335247         0.613873        -1.110167
 H         0.341091        -1.007042        -1.719018
 H         2.704499         0.424181        -2.081244
 H         2.039500         1.910477        -1.098983
 H         4.408316         1.725510         0.104125
 H         3.059501         1.327948         2.200943
 H         4.379946        -0.754147         2.545563
 H         2.977513        -1.778962        -0.745191
 H         2.189130        -2.039924         0.872477
