19
Iteration:  2821
 C         0.148856        -0.311401        -0.856691
 C         1.552477        -0.134131        -0.252928
 C         2.620149         0.712888        -1.013251
 C         3.553137         0.990021         0.050671
 C         2.702198         0.816246         1.340636
 O         1.352723         0.592573         1.046945
 C         3.529987        -0.303709         0.870972
 O         4.683223        -0.572433         1.587304
 C         2.526940        -1.287968         0.212854
 H        -0.297856         0.591357        -0.475141
 H         0.245978        -0.175668        -2.019625
 H        -0.312723        -1.310755        -0.683678
 H         2.986900         0.136685        -1.898538
 H         2.014401         1.639627        -1.409747
 H         4.526059         1.636121         0.169158
 H         2.885793         1.280291         2.292128
 H         4.368074        -1.023044         2.436150
 H         2.907028        -1.672642        -0.712919
 H         2.035585        -1.964505         0.857489
