19
Iteration:  1929charge 0 multiplicity 1
 C         0.114599        -0.516934        -0.800935
 C         1.504664        -0.066854        -0.294079
 C         2.448632         0.943587        -1.022979
 C         3.518074         1.023769         0.069325
 C         2.785670         0.866606         1.365589
 O         1.417626         0.633553         1.069026
 C         3.548826        -0.313446         0.833395
 O         4.698741        -0.777842         1.613634
 C         2.583898        -1.215550         0.232811
 H        -0.663395        -0.488429        -0.039301
 H        -0.276364         0.060367        -1.690030
 H         0.244028        -1.640741        -1.175680
 H         2.833437         0.718188        -1.948234
 H         1.952280         2.003012        -0.995632
 H         4.377654         1.572667        -0.050353
 H         3.025625         1.575863         2.181572
 H         5.210431        -1.264931         0.845792
 H         2.961979        -1.829421        -0.631930
 H         1.958717        -1.809777         0.922882
