19
Iteration:  3845
 C         0.284721        -0.553837        -0.885707
 C         1.586641        -0.039979        -0.209545
 C         2.511104         1.045695        -0.969113
 C         3.507859         1.076993         0.208086
 C         2.705604         0.826898         1.496042
 O         1.313856         0.601357         1.009643
 C         3.485698        -0.289467         0.873818
 O         4.710875        -0.874914         1.337348
 C         2.535144        -1.206617         0.210721
 H        -0.215994        -0.027768        -1.730247
 H         0.504027        -1.462701        -1.483300
 H        -0.353755        -0.824142        -0.121178
 H         2.921478         0.597664        -1.855889
 H         2.157077         1.979279        -1.197186
 H         4.317471         1.710313         0.230321
 H         2.788110         1.412405         2.477851
 H         4.746294        -0.635986         2.235396
 H         2.967124        -1.657914        -0.683214
 H         1.907656        -1.792907         0.809236
