19
Iteration:  1952charge 0 multiplicity 1
 C         0.355359        -0.559808        -0.765607
 C         1.534835        -0.025542        -0.170974
 C         2.521196         0.911192        -1.004093
 C         3.554072         1.060658         0.058568
 C         2.704568         0.831385         1.398300
 O         1.333926         0.651599         1.034088
 C         3.487944        -0.278234         0.820995
 O         4.746450        -0.764228         1.417364
 C         2.445989        -1.180293         0.247807
 H        -0.341946        -0.719158         0.133949
 H        -0.224521         0.222502        -1.404084
 H         0.465644        -1.566090        -1.355550
 H         2.916334         0.337412        -1.766851
 H         1.899021         1.846581        -1.387550
 H         4.407727         1.725110         0.197948
 H         2.847370         1.323872         2.387648
 H         4.590138        -1.704626         1.427319
 H         2.602288        -1.883596        -0.636343
 H         1.846809        -1.642734         1.087147
