19
Iteration:  2498
 C         0.264231        -0.595169        -0.828193
 C         1.570968        -0.078239        -0.235465
 C         2.493912         0.953698        -0.955603
 C         3.595366         0.959357         0.128152
 C         2.683486         0.908266         1.370037
 O         1.264003         0.681321         0.991381
 C         3.512546        -0.246103         0.917361
 O         4.688762        -0.831924         1.454576
 C         2.592094        -1.115148         0.210828
 H        -0.083853        -0.038143        -1.768630
 H         0.437653        -1.612010        -1.190010
 H        -0.530558        -0.816299        -0.176864
 H         2.952736         0.546220        -1.897046
 H         2.149216         1.936999        -1.049362
 H         4.392232         1.619838         0.152157
 H         2.712131         1.541080         2.248557
 H         4.527571        -1.527385         2.071951
 H         3.118808        -1.582029        -0.595937
 H         2.063981        -1.851579         0.712456
