19
Iteration:  3388
 C         0.238002        -0.375927        -0.954733
 C         1.505827        -0.085046        -0.195849
 C         2.507042         0.850453        -1.004571
 C         3.542580         0.990974         0.095231
 C         2.692004         0.833312         1.368435
 O         1.338225         0.568838         1.023732
 C         3.497013        -0.310847         0.978770
 O         4.705382        -0.813541         1.565994
 C         2.535592        -1.164309         0.230955
 H        -0.190094         0.582966        -1.269958
 H         0.571576        -1.198240        -1.664462
 H        -0.472541        -0.875859        -0.326736
 H         2.817037         0.463866        -1.898590
 H         2.180018         1.912914        -1.215050
 H         4.374679         1.591698         0.014215
 H         2.864216         1.449509         2.231372
 H         5.349505        -0.136247         1.159446
 H         2.999033        -1.650647        -0.627010
 H         2.122700        -1.856994         0.881035
