19
Iteration:   300charge 0 multiplicity 1
 C         0.179390        -0.594522        -0.632440
 C         1.495061         0.029847        -0.196009
 C         2.468865         0.760729        -1.199998
 C         3.638344         0.800381        -0.057677
 C         2.778050         1.002453         1.289422
 O         1.443949         0.868744         0.907820
 C         3.519083        -0.356731         0.963609
 O         4.715850        -0.801478         1.536265
 C         2.393394        -1.108699         0.389866
 H        -0.070705        -1.584565        -0.108385
 H        -0.698418        -0.076583        -0.654951
 H         0.462705        -1.020851        -1.671501
 H         2.720829         0.350158        -2.180117
 H         2.168517         1.872475        -1.404522
 H         4.529669         1.260871        -0.089309
 H         3.016359         1.694684         2.150636
 H         4.549199        -1.316539         2.336506
 H         2.806848        -1.802702        -0.386172
 H         1.833392        -1.601362         1.144702
