19
Iteration:  4032
 C         0.104236        -0.393249        -0.733968
 C         1.552417        -0.005745        -0.344194
 C         2.534258         0.880214        -0.940738
 C         3.585292         1.039555         0.148031
 C         2.651488         0.730627         1.410862
 O         1.347495         0.482210         1.045189
 C         3.549097        -0.348583         0.851418
 O         4.681977        -0.655585         1.575030
 C         2.651109        -1.167604        -0.021526
 H        -0.559981         0.433398        -0.490969
 H         0.116908        -0.336342        -1.833859
 H        -0.153765        -1.417491        -0.380893
 H         2.963698         0.495469        -1.970689
 H         2.134961         1.809924        -1.266256
 H         4.464887         1.809959         0.097831
 H         2.880941         1.143385         2.424070
 H         4.396863        -1.159631         2.304697
 H         3.116667        -1.640630        -0.865690
 H         2.170485        -1.946811         0.549754
