19
Iteration:  3151
 C         0.299387        -0.543445        -0.870546
 C         1.599171        -0.126430        -0.276994
 C         2.487492         0.930075        -0.995419
 C         3.537531         1.068726         0.116737
 C         2.717242         0.892182         1.453832
 O         1.343673         0.735260         0.961635
 C         3.495608        -0.340060         0.945530
 O         4.660098        -0.833147         1.425893
 C         2.537329        -1.209700         0.248060
 H        -0.281030         0.364975        -1.329516
 H         0.484747        -1.300472        -1.603702
 H        -0.432765        -1.049099        -0.254989
 H         2.844865         0.682096        -2.022958
 H         1.910043         1.805268        -1.140933
 H         4.402578         1.805360         0.413714
 H         2.932647         1.457717         2.358075
 H         4.419946        -1.229188         2.297548
 H         3.069019        -1.857207        -0.491535
 H         2.043074        -1.925454         1.041191
