19
Iteration:  3298
 C         0.253016        -0.568317        -0.859108
 C         1.577453        -0.066006        -0.243352
 C         2.456482         0.907198        -0.983320
 C         3.569251         1.050546         0.146361
 C         2.624285         0.915476         1.405074
 O         1.363886         0.722433         0.942058
 C         3.546621        -0.260763         0.943034
 O         4.691575        -0.855755         1.494245
 C         2.573008        -1.199694         0.196821
 H        -0.562696        -0.030546        -0.452539
 H         0.201198        -0.321318        -2.033946
 H         0.011762        -1.612681        -0.579533
 H         2.902374         0.598972        -1.936382
 H         1.962155         1.867374        -1.200398
 H         4.688164         1.527971         0.153503
 H         2.816176         1.376151         2.384895
 H         4.290141        -1.617220         1.970265
 H         2.988332        -1.877032        -0.571401
 H         2.152559        -1.871320         0.945178
