19
Iteration:  4868
 C         0.160023        -0.396174        -0.766602
 C         1.544052        -0.118086        -0.248227
 C         2.466139         0.824391        -1.001514
 C         3.538284         1.073895         0.031962
 C         2.805421         0.844958         1.410321
 O         1.448410         0.616124         0.997899
 C         3.601868        -0.311228         0.790126
 O         4.669297        -0.767086         1.680009
 C         2.481404        -1.231424         0.086676
 H        -0.414489        -1.145812        -0.159758
 H        -0.467658         0.502182        -0.766606
 H         0.236659        -0.577060        -1.881995
 H         2.838172         0.506224        -1.956585
 H         1.871721         1.699587        -1.377122
 H         4.425175         1.680313        -0.135632
 H         2.950367         1.328989         2.333252
 H         4.179512        -0.788101         2.554690
 H         2.842581        -1.717279        -0.832164
 H         2.034934        -2.071105         0.674285
