19
Iteration:  1904charge 0 multiplicity 1
 C         0.233208        -0.356940        -0.718542
 C         1.549271        -0.158956        -0.152808
 C         2.386815         0.763366        -1.013935
 C         3.575413         1.029480         0.058065
 C         2.733070         0.876622         1.336023
 O         1.346046         0.649923         1.042695
 C         3.569626        -0.305894         0.761762
 O         4.645074        -0.796849         1.626820
 C         2.599297        -1.228796         0.126419
 H        -0.532553        -0.083966        -0.040992
 H         0.084528         0.290318        -1.518233
 H         0.112169        -1.344636        -1.146702
 H         2.612363         0.282957        -2.027736
 H         1.910810         1.679599        -1.054495
 H         4.322695         1.837644        -0.203400
 H         2.920798         1.270939         2.313667
 H         5.373656        -0.155668         1.489612
 H         2.896467        -1.476067        -0.883480
 H         2.215449        -2.143507         0.534376
