19
Iteration:   563
 C         0.209294        -0.517274        -0.711597
 C         1.519054        -0.008082        -0.182192
 C         2.501151         0.693608        -1.100021
 C         3.601412         0.849530        -0.036473
 C         2.790049         0.970074         1.290524
 O         1.419054         0.777234         0.994225
 C         3.578830        -0.286781         0.883739
 O         4.708310        -0.729733         1.513330
 C         2.333343        -1.183933         0.330709
 H        -0.391737        -0.728832         0.162984
 H        -0.284653         0.248789        -1.243971
 H         0.351610        -1.504900        -1.291328
 H         2.914015         0.036669        -1.876651
 H         2.143774         1.578824        -1.575163
 H         4.491023         1.329904        -0.217076
 H         2.918878         1.803469         2.005137
 H         4.556870        -0.959943         2.470607
 H         2.625929        -1.860042        -0.463739
 H         1.781311        -1.660191         1.136699
