19
Iteration:  2575charge 0 multiplicity 1
 C         0.257582        -0.416250        -0.859438
 C         1.631665        -0.144958        -0.271925
 C         2.471547         0.803807        -1.016889
 C         3.456369         1.025327         0.110216
 C         2.729342         0.932535         1.359050
 O         1.387996         0.620923         1.004240
 C         3.461731        -0.326619         0.951461
 O         4.678653        -0.753061         1.570219
 C         2.545248        -1.281705         0.145088
 H        -0.368608         0.540906        -0.528601
 H         0.268539        -0.410836        -1.909723
 H        -0.232854        -1.199651        -0.341348
 H         2.868701         0.421254        -2.073067
 H         1.923109         1.727379        -1.175315
 H         4.423553         1.524773         0.257881
 H         2.803021         1.562788         2.255218
 H         4.984639        -0.072129         2.189877
 H         3.117819        -1.761545        -0.654519
 H         2.040338        -2.091369         0.705821
