19
Iteration:  1660
 C         0.158367        -0.456645        -0.721925
 C         1.534398        -0.076176        -0.173712
 C         2.592777         0.757605        -1.122857
 C         3.529988         1.048376         0.063103
 C         2.770732         0.892083         1.374773
 O         1.449999         0.773088         1.060722
 C         3.515446        -0.320863         0.754160
 O         4.613942        -0.776058         1.495650
 C         2.439993        -1.260364         0.330675
 H        -0.598049        -0.719526         0.012328
 H        -0.244730         0.108055        -1.627034
 H         0.223340        -1.467595        -1.139165
 H         3.008189         0.022220        -1.888236
 H         1.947998         1.449480        -1.580464
 H         4.552599         1.603587         0.020878
 H         2.998894         1.406858         2.319305
 H         5.469401        -0.322394         1.255991
 H         2.710701        -1.956079        -0.492791
 H         1.943316        -1.836591         1.099950
