19
Iteration:  1441
 C         0.166796        -0.556497        -0.648591
 C         1.522572        -0.032638        -0.264759
 C         2.536425         0.731680        -1.108799
 C         3.538181         1.073067         0.018642
 C         2.798183         1.048506         1.317304
 O         1.430322         0.712107         1.092446
 C         3.572631        -0.287908         0.834539
 O         4.628497        -0.891933         1.449810
 C         2.448764        -1.205484         0.292714
 H        -0.596763        -0.372280         0.028252
 H        -0.117346        -0.044530        -1.537587
 H         0.211097        -1.608352        -1.040705
 H         3.039030         0.115834        -1.963212
 H         2.220773         1.642981        -1.557482
 H         4.321091         1.672440        -0.270620
 H         3.059373         1.730426         2.160874
 H         4.536346        -0.626692         2.429442
 H         2.840866        -1.935541        -0.459157
 H         2.079804        -1.703822         1.167728
