19
Iteration:  1444charge 0 multiplicity 1
 C         0.168661        -0.534246        -0.646830
 C         1.536231        -0.062568        -0.260525
 C         2.502712         0.742652        -1.111910
 C         3.538696         1.071247         0.016380
 C         2.801976         1.040538         1.323436
 O         1.445957         0.710137         1.058191
 C         3.551656        -0.278068         0.861715
 O         4.619555        -0.888762         1.459016
 C         2.481342        -1.228006         0.290251
 H        -0.607583        -0.423682         0.146243
 H        -0.096061         0.016937        -1.618208
 H         0.228382        -1.527269        -0.943897
 H         2.997366         0.143501        -1.986114
 H         2.113983         1.665661        -1.507436
 H         4.408603         1.667474        -0.245742
 H         3.076849         1.716281         2.113411
 H         4.582093        -0.627182         2.365682
 H         2.843287        -1.874902        -0.505411
 H         1.968246        -1.676924         1.161667
