19
Iteration:  3264charge 0 multiplicity 1
 C         0.256224        -0.425757        -0.958954
 C         1.525134        -0.014039        -0.210897
 C         2.546549         0.876129        -1.032395
 C         3.504925         1.057289         0.126831
 C         2.684242         0.843015         1.402766
 O         1.379781         0.565313         1.077005
 C         3.504962        -0.276469         0.889275
 O         4.755468        -0.764118         1.480601
 C         2.469379        -1.252554         0.233148
 H        -0.477912         0.370583        -0.931148
 H         0.560298        -0.606726        -2.045651
 H        -0.149478        -1.431699        -0.606273
 H         2.935765         0.166106        -1.848150
 H         2.018326         1.678928        -1.430454
 H         4.448958         1.590410         0.237429
 H         2.814195         1.378039         2.331087
 H         4.712369        -0.751886         2.504641
 H         2.769215        -1.889066        -0.604503
 H         1.847216        -1.772542         1.002936
