19
Iteration:   573
 C         0.179950        -0.624514        -0.671292
 C         1.515800        -0.096861        -0.242281
 C         2.522109         0.746769        -1.071256
 C         3.643773         0.854810        -0.008263
 C         2.818831         1.022491         1.282105
 O         1.419483         0.863548         0.953468
 C         3.490440        -0.338077         0.918997
 O         4.691269        -0.764021         1.478045
 C         2.373626        -1.120403         0.345969
 H        -0.414316        -0.733481         0.237327
 H        -0.287844         0.008031        -1.341728
 H         0.254343        -1.657655        -1.204670
 H         2.836855         0.419487        -2.003155
 H         2.164685         1.782582        -1.150232
 H         4.587152         1.347935        -0.131313
 H         3.137198         1.835689         1.970191
 H         4.388847        -1.097112         2.389757
 H         2.665060        -1.821953        -0.459589
 H         1.902923        -1.756624         1.063140
