19
Iteration:  3119charge 0 multiplicity 1
 C         0.208030        -0.369409        -0.943641
 C         1.576871        -0.083575        -0.257022
 C         2.555497         0.782246        -1.012992
 C         3.576742         0.963546         0.096849
 C         2.713123         0.835521         1.401880
 O         1.281580         0.558491         1.087734
 C         3.545589        -0.304537         0.859329
 O         4.778529        -0.677340         1.539309
 C         2.439108        -1.196034         0.186455
 H        -0.482375         0.588164        -0.907123
 H         0.414503        -0.455921        -1.983415
 H        -0.121495        -1.281228        -0.440136
 H         2.821749         0.102461        -1.902986
 H         2.085009         1.665706        -1.272705
 H         4.316857         1.859116         0.287666
 H         2.854671         1.447129         2.271439
 H         4.631318        -0.745566         2.468398
 H         2.801855        -1.846624        -0.611566
 H         1.877408        -1.727082         1.015169
