19
Iteration:  1049
 C         0.116754        -0.468972        -0.624514
 C         1.501927        -0.106139        -0.259075
 C         2.554349         0.757894        -1.067559
 C         3.576921         0.967925        -0.020693
 C         2.802830         0.932399         1.233153
 O         1.352156         0.787836         0.979468
 C         3.601668        -0.302540         0.799495
 O         4.723885        -0.717378         1.665115
 C         2.464416        -1.271727         0.294734
 H        -0.354066        -0.948651         0.227389
 H        -0.452712         0.329915        -0.997448
 H         0.073088        -1.336326        -1.405772
 H         2.961673         0.218183        -2.065619
 H         2.144834         1.732028        -1.345086
 H         4.331443         1.667836        -0.057978
 H         2.983005         1.648920         2.034798
 H         4.920210        -1.638782         1.428636
 H         2.436746        -2.022625        -0.599942
 H         1.855881        -1.632232         1.133200
