19
Iteration:   833
 C         0.194688        -0.401952        -0.699780
 C         1.548956        -0.137225        -0.181145
 C         2.552469         0.741172        -1.132024
 C         3.564130         0.867397        -0.000210
 C         2.745986         0.962795         1.286732
 O         1.368171         0.687592         0.999640
 C         3.537507        -0.302609         0.797835
 O         4.725733        -0.739788         1.450302
 C         2.400204        -1.178935         0.423881
 H        -0.471314        -0.412920         0.164502
 H        -0.031472         0.480790        -1.228122
 H         0.146512        -1.352261        -1.364807
 H         2.904944         0.232102        -1.977797
 H         1.951574         1.710458        -1.372732
 H         4.472277         1.575655        -0.113625
 H         3.049312         1.544397         2.152032
 H         4.615736        -0.837546         2.406052
 H         2.855971        -1.948389        -0.253935
 H         2.015820        -1.525230         1.364982
