19
Iteration:  2881
 C         0.245982        -0.613742        -0.930204
 C         1.535278        -0.013909        -0.240879
 C         2.509831         0.843315        -0.997655
 C         3.566416         0.990912         0.088490
 C         2.736969         0.990977         1.411817
 O         1.324942         0.713968         1.012971
 C         3.524089        -0.259286         0.951625
 O         4.715020        -0.888343         1.480438
 C         2.497519        -1.121894         0.260742
 H        -0.753328        -0.024139        -0.880298
 H         0.518862        -0.680740        -1.934042
 H        -0.094394        -1.573126        -0.484446
 H         2.909476         0.278894        -1.888196
 H         2.140189         1.764476        -1.268431
 H         4.463935         1.463281         0.023119
 H         2.902173         1.682963         2.283433
 H         4.422502        -1.073954         2.432328
 H         3.030898        -1.645075        -0.583251
 H         1.965635        -1.952570         0.806674
