19
Iteration:  4080charge 0 multiplicity 1
 C         0.291224        -0.443981        -1.032615
 C         1.571263        -0.078139        -0.220743
 C         2.425641         1.002452        -0.901428
 C         3.489823         1.020280         0.157852
 C         2.660826         0.864019         1.523665
 O         1.323792         0.483403         1.098880
 C         3.561652        -0.284007         0.881003
 O         4.755989        -0.818473         1.345988
 C         2.554485        -1.147903         0.174244
 H        -0.129779         0.410063        -1.634831
 H         0.389658        -1.252128        -1.799667
 H        -0.433254        -0.752832        -0.153539
 H         2.683743         0.514266        -1.777749
 H         1.985296         2.052104        -1.104251
 H         4.412442         1.570957         0.214072
 H         2.836600         1.379879         2.443484
 H         4.611655        -0.964837         2.344674
 H         3.064933        -1.685793        -0.689109
 H         2.181491        -1.867318         0.981020
