19
Iteration:   210charge 0 multiplicity 1
 C         0.106036        -0.480349        -0.723584
 C         1.507777        -0.122651        -0.173063
 C         2.542281         0.758325        -1.014313
 C         3.626875         0.896499         0.012223
 C         2.852456         0.911014         1.265693
 O         1.466653         0.807433         0.880375
 C         3.520148        -0.318048         0.863598
 O         4.630983        -0.653381         1.468874
 C         2.425640        -1.300554         0.436342
 H        -0.519906        -1.023582        -0.081173
 H        -0.423198         0.491839        -0.954539
 H         0.223311        -1.079038        -1.546664
 H         2.891321         0.212753        -1.846786
 H         1.947992         1.736512        -1.287089
 H         4.621962         1.463023        -0.341066
 H         3.016117         1.612124         2.022081
 H         4.457687        -0.961255         2.399752
 H         2.810436        -1.969059        -0.279860
 H         1.980246        -1.830530         1.245351
