19
Iteration:   998charge 0 multiplicity 1
 C         0.221844        -0.565959        -0.707649
 C         1.477658        -0.095300        -0.164973
 C         2.509170         0.780132        -1.101673
 C         3.621289         1.017630        -0.087597
 C         2.799952         1.002062         1.230497
 O         1.367788         0.791145         1.065815
 C         3.554560        -0.275407         0.843002
 O         4.693914        -0.856996         1.522920
 C         2.472335        -1.190523         0.372149
 H        -0.462468        -0.524994         0.119666
 H        -0.321100         0.028594        -1.522943
 H         0.220975        -1.620357        -1.145864
 H         2.893446         0.291850        -1.890432
 H         1.937008         1.719969        -1.464580
 H         4.353447         1.740365        -0.082179
 H         2.821570         1.662594         2.133502
 H         4.354712        -1.654126         2.045524
 H         2.936123        -1.717409        -0.452522
 H         1.941844        -1.696343         1.162317
