19
Iteration:   654
 C         0.172621        -0.282540        -0.772267
 C         1.503154        -0.188520        -0.181664
 C         2.447933         0.575990        -1.057974
 C         3.554134         0.851632        -0.033305
 C         2.790215         0.895760         1.244287
 O         1.439096         0.789406         0.963818
 C         3.491920        -0.341601         0.918329
 O         4.799326        -0.588970         1.533153
 C         2.455457        -1.300236         0.378500
 H        -0.532507        -0.857053        -0.121472
 H        -0.310418         0.787486        -0.780135
 H         0.148141        -0.731069        -1.720592
 H         2.949334         0.183318        -2.054405
 H         1.958030         1.494986        -1.337781
 H         4.393840         1.620691        -0.288201
 H         2.931012         1.470951         2.153117
 H         4.612575        -0.720905         2.509188
 H         2.765272        -1.894875        -0.469196
 H         1.831390        -1.843229         1.132151
