19
Iteration:  2880
 C         0.232031        -0.614819        -0.931624
 C         1.528702        -0.015936        -0.241545
 C         2.514830         0.842063        -0.988909
 C         3.574464         0.982376         0.082444
 C         2.739485         0.991898         1.411581
 O         1.317335         0.708657         1.009058
 C         3.536928        -0.247053         0.960368
 O         4.722440        -0.887280         1.484389
 C         2.494980        -1.122104         0.254549
 H        -0.782695         0.014409        -0.843959
 H         0.535963        -0.662069        -1.955728
 H        -0.088255        -1.570994        -0.504424
 H         2.916550         0.265133        -1.927696
 H         2.148120         1.765093        -1.255486
 H         4.444259         1.450599         0.054238
 H         2.876901         1.691945         2.282958
 H         4.419986        -1.064837         2.399778
 H         3.001661        -1.648742        -0.548965
 H         1.972823        -1.933725         0.770677
