19
Iteration:  3768
 C         0.188833        -0.380096        -0.792298
 C         1.551515        -0.051734        -0.280009
 C         2.509081         0.902042        -1.055243
 C         3.584312         0.995391         0.146490
 C         2.752589         0.775583         1.411724
 O         1.370992         0.483558         1.007619
 C         3.513974        -0.348027         0.913238
 O         4.707612        -0.620032         1.612448
 C         2.496919        -1.199293         0.067154
 H        -0.631240         0.348371        -0.456414
 H         0.038492        -0.401746        -1.935577
 H        -0.242569        -1.334403        -0.638317
 H         2.881630         0.543392        -2.039121
 H         2.057693         1.873373        -1.280438
 H         4.457557         1.724958         0.020721
 H         2.862581         1.460197         2.218065
 H         4.494069        -1.425607         2.149945
 H         3.015365        -1.751062        -0.736244
 H         2.183716        -1.939274         0.777217
