19
Iteration:  1334
 C         0.167267        -0.455499        -0.666165
 C         1.528744        -0.146299        -0.094916
 C         2.529384         0.706079        -1.103987
 C         3.545348         1.003987        -0.090772
 C         2.810482         1.003004         1.250040
 O         1.471192         0.772143         1.040942
 C         3.503677        -0.265260         0.870550
 O         4.611179        -0.820926         1.522984
 C         2.477703        -1.275991         0.288982
 H        -0.218340        -1.431649        -0.392626
 H        -0.574443         0.372763        -0.359808
 H         0.242058        -0.519278        -1.776997
 H         3.013607         0.032578        -1.896953
 H         2.117635         1.559087        -1.524201
 H         4.363165         1.683999        -0.309369
 H         3.155534         1.559731         2.155498
 H         4.573372        -0.268821         2.383797
 H         2.759868        -1.709629        -0.716050
 H         2.037557        -2.096815         0.899144
