19
Iteration:   894charge 0 multiplicity 1
 C         0.207984        -0.509081        -0.631473
 C         1.553933        -0.096596        -0.209697
 C         2.485210         0.795884        -1.104642
 C         3.625340         0.950034        -0.121784
 C         2.742498         1.001042         1.248415
 O         1.449733         0.750677         0.961279
 C         3.554005        -0.257160         0.844793
 O         4.596921        -0.825346         1.586536
 C         2.491082        -1.156098         0.421614
 H        -0.064046        -1.477596        -0.093246
 H        -0.585146         0.206743        -0.367369
 H         0.115574        -0.726113        -1.683567
 H         2.748637         0.274288        -2.156449
 H         1.937152         1.628068        -1.405435
 H         4.536118         1.514887        -0.340165
 H         3.144380         1.741889         1.964451
 H         4.243099        -1.718245         1.839737
 H         2.780545        -2.013982        -0.238286
 H         2.019454        -1.719821         1.276049
