19
Iteration:  1874charge 0 multiplicity 1
 C         0.046172        -0.407474        -0.773491
 C         1.508753        -0.102926        -0.294549
 C         2.530576         0.838810        -1.117249
 C         3.576240         1.070417         0.091884
 C         2.777952         0.863286         1.386927
 O         1.406067         0.558421         1.081943
 C         3.548340        -0.265687         0.857637
 O         4.727229        -0.788297         1.454002
 C         2.537024        -1.236070         0.307165
 H        -0.598210        -0.388415         0.091832
 H        -0.264300         0.394781        -1.505638
 H        -0.027205        -1.465982        -1.363459
 H         2.915284         0.292237        -1.952928
 H         2.126538         1.844330        -1.555397
 H         4.374852         1.794181         0.041813
 H         2.897819         1.354131         2.344590
 H         4.741949        -0.255983         2.328653
 H         2.995816        -1.859477        -0.501368
 H         1.946531        -1.921304         0.923772
