19
Iteration:  2105
 C         0.276082        -0.556534        -0.885939
 C         1.552956        -0.058211        -0.199963
 C         2.492571         0.895843        -0.995091
 C         3.481597         1.068357         0.088815
 C         2.735157         0.841400         1.413876
 O         1.314814         0.731535         1.052712
 C         3.574241        -0.266173         0.845019
 O         4.714015        -0.868174         1.370939
 C         2.503832        -1.192721         0.347601
 H         0.321612        -1.597179        -0.985076
 H        -0.621375        -0.298492        -0.285271
 H         0.131913        -0.106437        -1.840857
 H         2.885020         0.353299        -1.841244
 H         1.941606         1.751106        -1.549650
 H         4.432241         1.644460        -0.018345
 H         2.994018         1.126235         2.418372
 H         4.951973        -0.470707         2.224229
 H         2.708770        -1.979405        -0.434661
 H         1.932684        -1.776051         1.088029
