19
Iteration:  2469charge 0 multiplicity 1
 C         0.265186        -0.581590        -0.779551
 C         1.580603        -0.095262        -0.310151
 C         2.482468         0.929890        -1.060203
 C         3.517578         1.166167         0.178625
 C         2.729655         0.828365         1.411818
 O         1.371542         0.685504         0.960550
 C         3.549514        -0.283152         0.824571
 O         4.664638        -0.805974         1.606889
 C         2.508577        -1.189126         0.198235
 H        -0.372980         0.095895        -1.483619
 H         0.472014        -1.435150        -1.406511
 H        -0.438063        -0.953759         0.001204
 H         3.069839         0.515422        -1.790901
 H         1.936237         1.895676        -1.445253
 H         4.332492         1.818725         0.224973
 H         2.813371         1.183671         2.431875
 H         4.813201        -1.733885         1.450811
 H         2.931854        -1.801375        -0.654097
 H         1.799498        -1.711350         0.963663
