19
Iteration:  4201
 C         0.229146        -0.412043        -0.949174
 C         1.562887        -0.081346        -0.190706
 C         2.441063         0.968014        -0.903842
 C         3.511027         1.059917         0.116889
 C         2.699104         0.818985         1.426165
 O         1.338187         0.461113         1.096187
 C         3.590535        -0.277848         0.810713
 O         4.726703        -0.780945         1.520722
 C         2.548730        -1.247175         0.053824
 H        -0.648629         0.206402        -0.538319
 H         0.406021        -0.017877        -2.005871
 H        -0.042580        -1.496314        -0.886370
 H         2.774539         0.735128        -1.865537
 H         1.833669         1.950985        -0.807786
 H         4.491337         1.664144         0.015417
 H         2.979649         1.408660         2.329024
 H         4.542728        -0.444790         2.376906
 H         2.967093        -1.751182        -0.857291
 H         2.206701        -1.850834         0.932076
