19
Iteration:   285
 C         0.200221        -0.480932        -0.676967
 C         1.565528        -0.127193        -0.229429
 C         2.501319         0.729151        -1.078275
 C         3.556791         0.878457        -0.040839
 C         2.817262         0.931407         1.258956
 O         1.430413         0.910288         0.876605
 C         3.497995        -0.323959         0.894948
 O         4.704373        -0.733246         1.532541
 C         2.416451        -1.277494         0.420413
 H        -0.133854        -1.392869        -0.215204
 H        -0.461916         0.379800        -0.212935
 H         0.043539        -0.637075        -1.709983
 H         2.823839         0.167139        -1.946566
 H         1.935661         1.671959        -1.254213
 H         4.524524         1.515147        -0.197326
 H         3.048459         1.638038         2.037879
 H         4.432409        -1.086434         2.376228
 H         2.663291        -2.015129        -0.308327
 H         1.845911        -1.776355         1.216834
