19
Iteration:  3271charge 0 multiplicity 1
 C         0.302437        -0.464866        -0.952835
 C         1.544435        -0.025753        -0.210367
 C         2.553696         0.863773        -1.014738
 C         3.519631         1.089813         0.118808
 C         2.677587         0.828067         1.396357
 O         1.356764         0.602836         1.062481
 C         3.544766        -0.290942         0.898154
 O         4.703966        -0.770944         1.447709
 C         2.425821        -1.256566         0.251453
 H        -0.519404         0.307484        -0.707933
 H         0.490522        -0.523023        -1.959680
 H        -0.057375        -1.430599        -0.579872
 H         3.149968         0.434301        -1.838794
 H         2.092006         1.797249        -1.416696
 H         4.285769         1.776514         0.193123
 H         3.005337         1.370016         2.282786
 H         4.501403        -0.840299         2.397329
 H         2.768921        -1.933249        -0.552727
 H         2.027653        -1.949813         1.103453
