19
Iteration:   339charge 0 multiplicity 1
 C         0.220556        -0.496611        -0.653716
 C         1.519205        -0.100260        -0.111642
 C         2.459102         0.646259        -1.132980
 C         3.528694         1.026868        -0.030354
 C         2.824171         0.986985         1.277848
 O         1.466820         0.856019         0.935716
 C         3.539268        -0.218535         0.838028
 O         4.607767        -0.875589         1.494792
 C         2.502826        -1.207979         0.393996
 H        -0.546457        -0.582850         0.074518
 H         0.029497         0.189244        -1.607485
 H         0.461505        -1.361122        -1.186930
 H         2.809876         0.021380        -1.953799
 H         1.920968         1.487402        -1.586101
 H         4.504335         1.590478        -0.241250
 H         2.887181         1.525155         2.261252
 H         4.209048        -1.232026         2.304151
 H         2.805836        -1.945620        -0.337579
 H         2.139787        -1.768660         1.334772
