19
Iteration:  1615
 C         0.078831        -0.370498        -0.663759
 C         1.471517        -0.120498        -0.217063
 C         2.406869         0.738231        -1.142456
 C         3.484801         0.936739        -0.105984
 C         2.798961         0.957864         1.225182
 O         1.437635         0.706329         1.003939
 C         3.575423        -0.312095         0.973496
 O         4.762870        -0.836860         1.662442
 C         2.550883        -1.229236         0.248357
 H        -0.343269        -1.180805        -0.134715
 H        -0.341412         0.664715        -0.656975
 H         0.086359        -0.722571        -1.779859
 H         2.830477         0.414648        -2.101364
 H         2.102769         1.773472        -1.328959
 H         4.344732         1.714603        -0.326003
 H         3.161512         1.743539         1.876513
 H         4.846165        -0.453701         2.558147
 H         3.063150        -1.838205        -0.556189
 H         2.171798        -1.999381         0.905629
