19
Iteration:  1768
 C         0.091093        -0.355809        -0.676809
 C         1.558318        -0.170348        -0.273532
 C         2.469251         0.744252        -1.035302
 C         3.590429         0.908328         0.032927
 C         2.745317         0.955671         1.341085
 O         1.440625         0.707265         0.925966
 C         3.542187        -0.315944         0.923249
 O         4.641468        -0.755964         1.578335
 C         2.560408        -1.282733         0.174085
 H        -0.144158        -1.255221        -0.102345
 H        -0.503369         0.417305        -0.082642
 H        -0.027171        -0.423787        -1.758202
 H         2.680388         0.387290        -2.092463
 H         1.861524         1.740666        -1.132653
 H         4.445596         1.509224        -0.070405
 H         2.916120         1.508512         2.255514
 H         5.075850         0.135502         1.838879
 H         3.068501        -1.777797        -0.708351
 H         2.167893        -2.029073         0.880586
