19
Iteration:  3605
 C         0.181017        -0.458731        -0.793171
 C         1.614750        -0.083621        -0.245101
 C         2.488737         0.885074        -0.955252
 C         3.534568         1.032437         0.132147
 C         2.740369         0.789547         1.351581
 O         1.322284         0.639832         0.967040
 C         3.569134        -0.308050         0.842949
 O         4.651971        -0.773323         1.564240
 C         2.597665        -1.190702         0.134924
 H        -0.141125         0.504383        -1.164118
 H         0.166924        -1.282686        -1.552458
 H        -0.377797        -0.804392         0.012591
 H         2.962397         0.776189        -1.970037
 H         1.864348         1.814689        -1.219785
 H         4.281048         1.919391         0.091611
 H         3.040213         1.352442         2.287543
 H         4.262600        -1.112874         2.343336
 H         2.988668        -1.750761        -0.776383
 H         2.189024        -2.032941         0.757393
