19
Iteration:  3055charge 0 multiplicity 1
 C         0.261815        -0.494733        -0.836460
 C         1.548546         0.044291        -0.271374
 C         2.569251         0.922395        -1.094728
 C         3.516651         1.057404         0.090920
 C         2.682778         0.864470         1.393697
 O         1.322795         0.610610         1.018177
 C         3.578918        -0.293122         0.888197
 O         4.707503        -0.812907         1.575960
 C         2.486483        -1.200112         0.220052
 H        -0.753197         0.072785        -0.778716
 H         0.246619        -0.900271        -1.820597
 H         0.171520        -1.490183        -0.230732
 H         2.992378         0.198258        -1.970965
 H         2.048585         1.754865        -1.556186
 H         4.535033         1.656346         0.032858
 H         2.946532         1.286857         2.337251
 H         4.319844        -1.338450         2.248666
 H         2.869568        -1.849828        -0.503423
 H         1.944554        -1.710741         0.980543
