19
Iteration:  1294charge 0 multiplicity 1
 C         0.175086        -0.589257        -0.665391
 C         1.527570        -0.076695        -0.257793
 C         2.516161         0.856716        -1.113322
 C         3.564396         1.000300        -0.070074
 C         2.788265         0.957689         1.232493
 O         1.417583         0.813089         0.958550
 C         3.582396        -0.326086         0.891702
 O         4.699076        -0.918239         1.580944
 C         2.361851        -1.193293         0.415656
 H        -0.237983        -1.538057        -0.184932
 H        -0.623139         0.215108        -0.499339
 H         0.175628        -0.806422        -1.676775
 H         2.821260         0.528024        -2.031899
 H         1.889044         1.889881        -1.294069
 H         4.335449         1.682345        -0.103241
 H         2.976379         1.648296         2.081741
 H         5.507824        -0.500840         1.760994
 H         2.606791        -1.984946        -0.270586
 H         2.033110        -1.763935         1.312188
