19
Iteration:   590
 C         0.141196        -0.680113        -0.646860
 C         1.562583        -0.052157        -0.189735
 C         2.487924         0.891442        -1.086438
 C         3.607739         0.923785        -0.065965
 C         2.766342         1.021607         1.248601
 O         1.431506         0.976706         0.875708
 C         3.545557        -0.288171         0.973320
 O         4.630002        -0.867883         1.486380
 C         2.482001        -1.307979         0.380674
 H        -0.500500        -0.734216         0.287736
 H        -0.443408        -0.038023        -1.435881
 H         0.389875        -1.652942        -0.889553
 H         2.899929         0.432757        -2.125174
 H         1.954822         1.894441        -1.345655
 H         4.712735         1.432357        -0.188176
 H         2.915925         1.449311         2.230871
 H         4.470103        -1.428521         2.314391
 H         3.077392        -2.011424        -0.263891
 H         1.958031        -1.929390         1.176658
