19
Iteration:  4219
 C         0.275609        -0.500690        -0.986909
 C         1.553756        -0.089049        -0.316533
 C         2.413276         1.065747        -0.960209
 C         3.507673         1.058885         0.141548
 C         2.721157         0.793446         1.440444
 O         1.353172         0.541780         1.107776
 C         3.533648        -0.301601         0.942544
 O         4.750244        -0.829958         1.397006
 C         2.533037        -1.177216         0.249314
 H        -0.519937        -0.135885        -0.430036
 H         0.222156        -0.043002        -1.905131
 H         0.327316        -1.604785        -0.987786
 H         2.697031         0.667451        -1.990394
 H         1.835221         2.027307        -1.091599
 H         4.411173         1.782264         0.180617
 H         2.763771         1.205068         2.453874
 H         4.792345        -0.824685         2.341209
 H         3.024253        -1.604296        -0.603687
 H         1.873961        -1.817985         0.761312
