19
Iteration:  2787
 C         0.272065        -0.509284        -0.890816
 C         1.580308        -0.112477        -0.264452
 C         2.465020         0.863970        -1.022761
 C         3.524193         1.015053         0.093121
 C         2.701666         0.870715         1.346511
 O         1.358376         0.710463         0.970963
 C         3.546435        -0.262503         0.956077
 O         4.737195        -0.841672         1.541699
 C         2.496639        -1.182387         0.276178
 H        -0.417641         0.259449        -1.100848
 H         0.353974        -0.975635        -1.922059
 H        -0.450119        -1.094184        -0.222774
 H         2.784661         0.497666        -1.978956
 H         1.827433         1.869879        -1.135503
 H         4.422829         1.633960         0.063399
 H         2.869414         1.437478         2.286476
 H         4.627678        -0.877833         2.507618
 H         3.053225        -1.719547        -0.505983
 H         1.906342        -1.888185         0.806648
