19
Iteration:  2533
 C         0.238284        -0.412357        -0.924668
 C         1.553280        -0.126103        -0.259209
 C         2.504791         0.827035        -0.985211
 C         3.486943         1.093077         0.149867
 C         2.685621         0.812533         1.377193
 O         1.304373         0.614012         1.066885
 C         3.619940        -0.301330         0.858530
 O         4.737670        -0.762827         1.502129
 C         2.496343        -1.263784         0.230355
 H        -0.003718         0.520107        -1.587729
 H         0.440691        -1.218150        -1.594274
 H        -0.587396        -0.517675        -0.216314
 H         3.032273         0.332791        -1.747458
 H         2.049236         1.727657        -1.455742
 H         4.272101         1.832855         0.025279
 H         2.976846         1.302314         2.307544
 H         4.652436        -0.249710         2.276451
 H         2.904951        -1.883126        -0.556250
 H         2.103456        -1.780890         1.012109
