19
Iteration:   941charge 0 multiplicity 1
 C         0.173392        -0.330931        -0.726488
 C         1.481448        -0.068044        -0.108394
 C         2.545851         0.634495        -1.123634
 C         3.529593         0.764067        -0.042793
 C         2.768630         1.000946         1.305521
 O         1.365173         0.728033         1.035183
 C         3.518255        -0.368847         0.915429
 O         4.765129        -0.619540         1.445715
 C         2.463504        -1.259763         0.324776
 H        -0.429583        -1.100317        -0.178574
 H        -0.359605         0.608094        -0.704421
 H         0.318604        -0.665410        -1.855471
 H         2.841118         0.004521        -1.967551
 H         2.303404         1.635959        -1.537553
 H         4.510324         1.295886         0.047147
 H         2.879434         1.759070         2.053481
 H         4.601393        -0.574785         2.370976
 H         2.972090        -1.890343        -0.480350
 H         2.048318        -2.026644         0.952086
