19
Iteration:   141
 C         0.214540        -0.453502        -0.695811
 C         1.602539        -0.197830        -0.227213
 C         2.456599         0.715547        -1.082222
 C         3.536189         0.974280        -0.046969
 C         2.805310         0.991472         1.307878
 O         1.425763         0.814485         0.975877
 C         3.528100        -0.280981         0.803080
 O         4.662495        -0.744978         1.522310
 C         2.469803        -1.256328         0.402133
 H        -0.510701        -0.312188         0.118054
 H        -0.047303         0.270253        -1.477859
 H         0.035342        -1.505238        -0.979227
 H         2.951483         0.200119        -1.999767
 H         1.846163         1.553232        -1.323813
 H         4.427533         1.410237        -0.191656
 H         3.085528         1.635144         2.206847
 H         4.370697        -1.243676         2.276003
 H         2.712393        -1.961632        -0.386488
 H         1.903962        -1.820069         1.178723
