19
Iteration:  4694
 C         0.173048        -0.326707        -0.842289
 C         1.557058        -0.159064        -0.200704
 C         2.572089         0.805063        -0.998571
 C         3.472948         0.988346         0.159780
 C         2.625164         0.871210         1.423973
 O         1.362182         0.626403         0.963681
 C         3.535761        -0.253874         0.908333
 O         4.739776        -0.851498         1.406891
 C         2.591946        -1.219508         0.211304
 H        -0.295117        -1.329930        -0.741932
 H        -0.469848         0.415070        -0.353991
 H         0.221212         0.015803        -1.923400
 H         3.117671         0.238368        -1.676415
 H         2.036938         1.775922        -1.371380
 H         4.121900         1.841226         0.118158
 H         2.727634         1.606063         2.264199
 H         4.789348        -0.551017         2.333304
 H         3.083262        -1.743797        -0.648214
 H         2.238290        -1.901004         1.051624
