19
Iteration:  2337charge 0 multiplicity 1
 C         0.283788        -0.557109        -0.811298
 C         1.547168        -0.122804        -0.181177
 C         2.497030         0.843494        -0.992191
 C         3.565061         1.085261         0.037685
 C         2.727204         0.960580         1.362612
 O         1.371160         0.703603         0.986170
 C         3.539846        -0.279510         0.851663
 O         4.572655        -0.821120         1.632014
 C         2.545690        -1.199886         0.187568
 H        -0.533571         0.188241        -0.754246
 H         0.436106        -0.900488        -1.789959
 H         0.043305        -1.400902        -0.247091
 H         2.761089         0.501903        -1.949690
 H         1.917881         1.816835        -1.319897
 H         4.417045         1.833326        -0.012073
 H         2.958069         1.552723         2.253508
 H         5.108616        -1.374774         1.087558
 H         2.675935        -1.900034        -0.653421
 H         2.178714        -1.950436         0.973023
