19
Iteration:  2756charge 0 multiplicity 1
 C         0.331858        -0.615589        -0.845719
 C         1.572004        -0.016589        -0.184674
 C         2.576383         0.913319        -1.014611
 C         3.570547         1.094594         0.134241
 C         2.659610         0.910624         1.353230
 O         1.337999         0.683176         1.044608
 C         3.541165        -0.259291         0.833494
 O         4.618798        -0.851335         1.440951
 C         2.453351        -1.168058         0.238772
 H        -0.239921        -0.069476        -1.661140
 H         0.638367        -1.722176        -1.232331
 H        -0.365459        -0.954704         0.001975
 H         2.967728         0.274268        -1.840745
 H         2.190623         1.904628        -1.444702
 H         4.591848         1.601328         0.100146
 H         2.876846         1.390789         2.322305
 H         4.294748        -1.133308         2.328259
 H         2.894160        -1.826372        -0.468073
 H         1.918541        -1.831723         0.873804
