19
Iteration:   309
 C         0.184175        -0.694065        -0.667016
 C         1.447783         0.030744        -0.216827
 C         2.531032         0.769586        -1.152142
 C         3.679285         0.839217        -0.075683
 C         2.857056         1.025011         1.238687
 O         1.377331         0.884778         1.009089
 C         3.481843        -0.269892         0.950846
 O         4.719194        -0.853316         1.536265
 C         2.373386        -1.097284         0.351732
 H        -0.116451        -1.453982         0.100920
 H        -0.673047        -0.032073        -0.869148
 H         0.431245        -1.227071        -1.581927
 H         2.742356         0.147192        -1.971126
 H         2.276258         1.887873        -1.395460
 H         4.642491         1.270156        -0.239822
 H         3.020067         1.755531         2.099379
 H         4.470814        -1.396350         2.293721
 H         2.732127        -1.774655        -0.414503
 H         1.815337        -1.665143         1.022804
