19
Iteration:  4557charge 0 multiplicity 1
 C         0.214186        -0.471228        -0.874560
 C         1.530875        -0.064101        -0.181782
 C         2.542701         0.865433        -1.031187
 C         3.563165         0.961428         0.068313
 C         2.755356         0.851509         1.408034
 O         1.350064         0.736202         0.976244
 C         3.540429        -0.355620         0.877422
 O         4.705003        -0.732456         1.513761
 C         2.482738        -1.243544         0.275896
 H         0.217051        -0.210201        -1.952148
 H        -0.174206        -1.477768        -0.829015
 H        -0.613004         0.057260        -0.429367
 H         2.908253         0.218650        -1.952812
 H         2.012896         1.680861        -1.421982
 H         4.513115         1.571964        -0.093737
 H         2.708382         1.180502         2.509435
 H         4.631574        -0.742866         2.493612
 H         2.926527        -1.659628        -0.612085
 H         1.976313        -1.959062         0.870493
