19
Iteration:  4343
 C         0.208358        -0.472322        -0.843033
 C         1.542699        -0.000670        -0.223056
 C         2.518248         0.886453        -1.033244
 C         3.547642         1.063131         0.094782
 C         2.719214         0.893653         1.432779
 O         1.331369         0.562135         1.009490
 C         3.572188        -0.342463         0.893458
 O         4.616648        -0.804372         1.613645
 C         2.572736        -1.241008         0.173101
 H         0.272390        -1.579209        -1.072106
 H        -0.620386        -0.117221        -0.173843
 H         0.085043         0.071651        -1.767160
 H         2.851026         0.303471        -1.853777
 H         2.017520         1.950058        -1.359059
 H         4.351431         1.687527        -0.075143
 H         2.940338         1.468952         2.309250
 H         5.359719        -0.649545         1.055333
 H         3.034856        -1.580753        -0.762920
 H         1.898913        -1.885031         0.732797
