19
Iteration:  4296
 C         0.227708        -0.360779        -0.867267
 C         1.521997        -0.123259        -0.247925
 C         2.473286         0.954838        -0.922236
 C         3.510145         1.115344         0.061889
 C         2.715477         0.778205         1.316581
 O         1.332937         0.513303         1.009530
 C         3.530267        -0.335162         0.864066
 O         4.726317        -0.704654         1.627058
 C         2.572966        -1.231940         0.160494
 H        -0.181120        -1.140721        -0.262464
 H        -0.324751         0.514309        -0.802391
 H         0.360656        -0.757288        -1.886893
 H         2.905518         0.637538        -1.886684
 H         1.782522         1.865246        -1.033560
 H         4.574779         1.666747         0.041332
 H         2.822418         1.187688         2.344810
 H         4.777453        -1.671368         1.560477
 H         3.062822        -1.718814        -0.670983
 H         2.184857        -1.845974         0.955556
