19
Iteration:  3184charge 0 multiplicity 1
 C         0.222681        -0.610553        -0.803957
 C         1.482231         0.041678        -0.234416
 C         2.546295         0.940695        -1.074425
 C         3.598491         1.024976         0.195541
 C         2.710011         0.913492         1.375637
 O         1.298220         0.636300         1.042636
 C         3.542585        -0.264786         0.880849
 O         4.669567        -0.839409         1.538241
 C         2.583824        -1.174894         0.124584
 H        -0.206401         0.039555        -1.708871
 H         0.480589        -1.486453        -1.319634
 H        -0.612137        -0.710156        -0.104366
 H         3.062335         0.436661        -1.936576
 H         2.168126         1.880462        -1.483635
 H         4.496739         1.782550         0.283809
 H         2.887906         1.502616         2.298092
 H         4.413906        -1.691174         2.048431
 H         3.048187        -1.663366        -0.780087
 H         2.077801        -2.040858         0.776052
