19
Iteration:  1457charge 0 multiplicity 1
 C         0.196721        -0.463280        -0.662919
 C         1.604436        -0.156456        -0.164927
 C         2.423821         0.821938        -1.075235
 C         3.542732         0.977528        -0.068046
 C         2.793869         0.929237         1.275780
 O         1.442753         0.752091         0.930296
 C         3.514850        -0.258752         0.927260
 O         4.637173        -0.862409         1.501802
 C         2.527258        -1.189440         0.300597
 H        -0.480607        -0.264012         0.278787
 H        -0.315732         0.180150        -1.465586
 H         0.068355        -1.500583        -0.958623
 H         2.724865         0.342009        -1.990256
 H         1.703754         1.675584        -1.330174
 H         4.566374         1.537655        -0.026057
 H         2.902868         1.510647         2.168117
 H         4.815857        -0.586977         2.451828
 H         3.002329        -1.811980        -0.453943
 H         2.031233        -2.005160         0.942189
