19
Iteration:  2193charge 0 multiplicity 1
 C         0.156938        -0.508276        -0.749265
 C         1.584778        -0.117054        -0.245475
 C         2.518668         0.886668        -1.070711
 C         3.550556         1.029785         0.055485
 C         2.728426         0.933165         1.385189
 O         1.384492         0.620570         1.052587
 C         3.525974        -0.264319         0.911449
 O         4.662674        -0.836899         1.530399
 C         2.543195        -1.177379         0.133418
 H         0.285774        -0.820123        -1.781064
 H        -0.171072        -1.398708        -0.207950
 H        -0.611154         0.180188        -0.722889
 H         2.934974         0.381172        -1.941611
 H         1.956762         1.937128        -1.386535
 H         4.474196         1.468901        -0.004286
 H         2.843764         1.605246         2.274406
 H         4.625247        -0.386802         2.352778
 H         3.039753        -1.648816        -0.773113
 H         2.103279        -2.009687         0.751033
